data_image0
_chemical_formula_structural       Al12O18Al12O18Al12O18Al12O18Al12O18Al12O18Al12O18Al12O18Al12O18Al12O18Al12O18Al12O18Al12O18Al12O18Al12O18Al12O18Al12O18Al12O18Al12O18Al12O18Al12O18Al12O18Al12O18Al12O18Al12O18Al12O18Al12O18Al12O18Al12O18Al12O18Al12O18Al12O18Al12O18Al12O18Al12O18Al12O18Al12O18Al12O18Al12O18Al12O18Al12O18Al12O18Al12O18Al12O18Al12O18Al12O18Al12O18Al12O18Al12O18Al12O18Al12O18Al12O18Al12O18Al12O18Al12O18Al12O18Al12O18Al12O18Al12O18Al12O18Al12O18Al12O18Al12O18Al12O18Al12O18Al12O18Al12O18Al12O18Al12O18Al12O18Al12O18Al12O18Al12O18Al12O18Al12O18Al12O18Al12O18Al12O18Al12O18Al12O18Al12O18Al12O18Al12O18Al12O18Al12O18Al12O18Al12O18Al12O18Al12O18Al12O18Al12O18Al12O18Al12O18Al12O18Al12O18Al12O18Al12O18Al12O18Al12O18Al12O18Al12O18Al12O18Al12O18Al12O18Al12O18Al12O18Al12O18Al12O18Al12O18Al12O18Al12O18Al12O18Al12O18Al12O18Al12O18Al12O18Al12O18Al12O18Al12O18Al12O18Al12O18Al12O18Al12O18Al12O18Al12O18
_chemical_formula_sum              "Al1500 O2250"
_cell_length_a       24.0251
_cell_length_b       24.0251
_cell_length_c       65.0891
_cell_angle_alpha    90
_cell_angle_beta     90
_cell_angle_gamma    120

_space_group_name_H-M_alt    "P 1"
_space_group_IT_number       1

loop_
  _space_group_symop_operation_xyz
  'x, y, z'

loop_
  _atom_site_type_symbol
  _atom_site_label
  _atom_site_symmetry_multiplicity
  _atom_site_fract_x
  _atom_site_fract_y
  _atom_site_fract_z
  _atom_site_occupancy
  Al  Al1       1.0  0.06667  0.13333  0.16037  1.0000
  Al  Al2       1.0  0.13333  0.06667  0.13434  1.0000
  Al  Al3       1.0  0.00000  0.00000  0.12678  1.0000
  Al  Al4       1.0  0.06667  0.13333  0.10076  1.0000
  Al  Al5       1.0  0.00000  0.00000  0.02602  1.0000
  Al  Al6       1.0  0.06667  0.13333  0.00000  1.0000
  Al  Al7       1.0  0.13333  0.06667  0.19395  1.0000
  Al  Al8       1.0  0.00000  0.00000  0.16793  1.0000
  Al  Al9       1.0  0.13333  0.06667  0.09319  1.0000
  Al  Al10      1.0  0.00000  0.00000  0.06717  1.0000
  Al  Al11      1.0  0.06667  0.13333  0.05961  1.0000
  Al  Al12      1.0  0.13333  0.06667  0.03359  1.0000
  O   O1        1.0  0.07210  0.06667  0.11377  1.0000
  O   O2        1.0  0.13877  0.13877  0.14735  1.0000
  O   O3        1.0  0.19456  0.12790  0.11377  1.0000
  O   O4        1.0  0.13333  0.00544  0.11377  1.0000
  O   O5        1.0  0.00000  0.06123  0.14735  1.0000
  O   O6        1.0  0.06123  0.00000  0.14735  1.0000
  O   O7        1.0  0.00544  0.13333  0.18094  1.0000
  O   O8        1.0  0.07210  0.00544  0.01301  1.0000
  O   O9        1.0  0.12790  0.19456  0.18094  1.0000
  O   O10       1.0  0.06667  0.07210  0.18094  1.0000
  O   O11       1.0  0.13333  0.12790  0.01301  1.0000
  O   O12       1.0  0.19456  0.06667  0.01301  1.0000
  O   O13       1.0  0.13877  0.00000  0.04660  1.0000
  O   O14       1.0  0.00544  0.07210  0.08018  1.0000
  O   O15       1.0  0.06123  0.06123  0.04660  1.0000
  O   O16       1.0  0.20000  0.13877  0.04660  1.0000
  O   O17       1.0  0.06667  0.19456  0.08018  1.0000
  O   O18       1.0  0.12790  0.13333  0.08018  1.0000
  Al  Al13      1.0  0.06667  0.13333  0.36188  1.0000
  Al  Al14      1.0  0.13333  0.06667  0.33585  1.0000
  Al  Al15      1.0  0.00000  0.00000  0.32829  1.0000
  Al  Al16      1.0  0.06667  0.13333  0.30227  1.0000
  Al  Al17      1.0  0.00000  0.00000  0.22754  1.0000
  Al  Al18      1.0  0.06667  0.13333  0.20151  1.0000
  Al  Al19      1.0  0.13333  0.06667  0.39546  1.0000
  Al  Al20      1.0  0.00000  0.00000  0.36944  1.0000
  Al  Al21      1.0  0.13333  0.06667  0.29471  1.0000
  Al  Al22      1.0  0.00000  0.00000  0.26868  1.0000
  Al  Al23      1.0  0.06667  0.13333  0.26112  1.0000
  Al  Al24      1.0  0.13333  0.06667  0.23510  1.0000
  O   O19       1.0  0.07210  0.06667  0.31528  1.0000
  O   O20       1.0  0.13877  0.13877  0.34887  1.0000
  O   O21       1.0  0.19456  0.12790  0.31528  1.0000
  O   O22       1.0  0.13333  0.00544  0.31528  1.0000
  O   O23       1.0  0.00000  0.06123  0.34887  1.0000
  O   O24       1.0  0.06123  0.00000  0.34887  1.0000
  O   O25       1.0  0.00544  0.13333  0.38245  1.0000
  O   O26       1.0  0.07210  0.00544  0.21452  1.0000
  O   O27       1.0  0.12790  0.19456  0.38245  1.0000
  O   O28       1.0  0.06667  0.07210  0.38245  1.0000
  O   O29       1.0  0.13333  0.12790  0.21452  1.0000
  O   O30       1.0  0.19456  0.06667  0.21452  1.0000
  O   O31       1.0  0.13877  0.00000  0.24811  1.0000
  O   O32       1.0  0.00544  0.07210  0.28169  1.0000
  O   O33       1.0  0.06123  0.06123  0.24811  1.0000
  O   O34       1.0  0.20000  0.13877  0.24811  1.0000
  O   O35       1.0  0.06667  0.19456  0.28169  1.0000
  O   O36       1.0  0.12790  0.13333  0.28169  1.0000
  Al  Al25      1.0  0.06667  0.13333  0.56339  1.0000
  Al  Al26      1.0  0.13333  0.06667  0.53737  1.0000
  Al  Al27      1.0  0.00000  0.00000  0.52980  1.0000
  Al  Al28      1.0  0.06667  0.13333  0.50378  1.0000
  Al  Al29      1.0  0.00000  0.00000  0.42905  1.0000
  Al  Al30      1.0  0.06667  0.13333  0.40302  1.0000
  Al  Al31      1.0  0.13333  0.06667  0.59698  1.0000
  Al  Al32      1.0  0.00000  0.00000  0.57095  1.0000
  Al  Al33      1.0  0.13333  0.06667  0.49622  1.0000
  Al  Al34      1.0  0.00000  0.00000  0.47020  1.0000
  Al  Al35      1.0  0.06667  0.13333  0.46263  1.0000
  Al  Al36      1.0  0.13333  0.06667  0.43661  1.0000
  O   O37       1.0  0.07210  0.06667  0.51679  1.0000
  O   O38       1.0  0.13877  0.13877  0.55038  1.0000
  O   O39       1.0  0.19456  0.12790  0.51679  1.0000
  O   O40       1.0  0.13333  0.00544  0.51679  1.0000
  O   O41       1.0  0.00000  0.06123  0.55038  1.0000
  O   O42       1.0  0.06123  0.00000  0.55038  1.0000
  O   O43       1.0  0.00544  0.13333  0.58396  1.0000
  O   O44       1.0  0.07210  0.00544  0.41604  1.0000
  O   O45       1.0  0.12790  0.19456  0.58396  1.0000
  O   O46       1.0  0.06667  0.07210  0.58396  1.0000
  O   O47       1.0  0.13333  0.12790  0.41604  1.0000
  O   O48       1.0  0.19456  0.06667  0.41604  1.0000
  O   O49       1.0  0.13877  0.00000  0.44962  1.0000
  O   O50       1.0  0.00544  0.07210  0.48321  1.0000
  O   O51       1.0  0.06123  0.06123  0.44962  1.0000
  O   O52       1.0  0.20000  0.13877  0.44962  1.0000
  O   O53       1.0  0.06667  0.19456  0.48321  1.0000
  O   O54       1.0  0.12790  0.13333  0.48321  1.0000
  Al  Al37      1.0  0.06667  0.13333  0.76490  1.0000
  Al  Al38      1.0  0.13333  0.06667  0.73888  1.0000
  Al  Al39      1.0  0.00000  0.00000  0.73132  1.0000
  Al  Al40      1.0  0.06667  0.13333  0.70529  1.0000
  Al  Al41      1.0  0.00000  0.00000  0.63056  1.0000
  Al  Al42      1.0  0.06667  0.13333  0.60454  1.0000
  Al  Al43      1.0  0.13333  0.06667  0.79849  1.0000
  Al  Al44      1.0  0.00000  0.00000  0.77246  1.0000
  Al  Al45      1.0  0.13333  0.06667  0.69773  1.0000
  Al  Al46      1.0  0.00000  0.00000  0.67171  1.0000
  Al  Al47      1.0  0.06667  0.13333  0.66415  1.0000
  Al  Al48      1.0  0.13333  0.06667  0.63812  1.0000
  O   O55       1.0  0.07210  0.06667  0.71831  1.0000
  O   O56       1.0  0.13877  0.13877  0.75189  1.0000
  O   O57       1.0  0.19456  0.12790  0.71831  1.0000
  O   O58       1.0  0.13333  0.00544  0.71831  1.0000
  O   O59       1.0  0.00000  0.06123  0.75189  1.0000
  O   O60       1.0  0.06123  0.00000  0.75189  1.0000
  O   O61       1.0  0.00544  0.13333  0.78548  1.0000
  O   O62       1.0  0.07210  0.00544  0.61755  1.0000
  O   O63       1.0  0.12790  0.19456  0.78548  1.0000
  O   O64       1.0  0.06667  0.07210  0.78548  1.0000
  O   O65       1.0  0.13333  0.12790  0.61755  1.0000
  O   O66       1.0  0.19456  0.06667  0.61755  1.0000
  O   O67       1.0  0.13877  0.00000  0.65113  1.0000
  O   O68       1.0  0.00544  0.07210  0.68472  1.0000
  O   O69       1.0  0.06123  0.06123  0.65113  1.0000
  O   O70       1.0  0.20000  0.13877  0.65113  1.0000
  O   O71       1.0  0.06667  0.19456  0.68472  1.0000
  O   O72       1.0  0.12790  0.13333  0.68472  1.0000
  Al  Al49      1.0  0.06667  0.13333  0.96641  1.0000
  Al  Al50      1.0  0.13333  0.06667  0.94039  1.0000
  Al  Al51      1.0  0.00000  0.00000  0.93283  1.0000
  Al  Al52      1.0  0.06667  0.13333  0.90681  1.0000
  Al  Al53      1.0  0.00000  0.00000  0.83207  1.0000
  Al  Al54      1.0  0.06667  0.13333  0.80605  1.0000
  Al  Al55      1.0  0.13333  0.06667  1.00000  1.0000
  Al  Al56      1.0  0.00000  0.00000  0.97398  1.0000
  Al  Al57      1.0  0.13333  0.06667  0.89924  1.0000
  Al  Al58      1.0  0.00000  0.00000  0.87322  1.0000
  Al  Al59      1.0  0.06667  0.13333  0.86566  1.0000
  Al  Al60      1.0  0.13333  0.06667  0.83963  1.0000
  O   O73       1.0  0.07210  0.06667  0.91982  1.0000
  O   O74       1.0  0.13877  0.13877  0.95340  1.0000
  O   O75       1.0  0.19456  0.12790  0.91982  1.0000
  O   O76       1.0  0.13333  0.00544  0.91982  1.0000
  O   O77       1.0  0.00000  0.06123  0.95340  1.0000
  O   O78       1.0  0.06123  0.00000  0.95340  1.0000
  O   O79       1.0  0.00544  0.13333  0.98699  1.0000
  O   O80       1.0  0.07210  0.00544  0.81906  1.0000
  O   O81       1.0  0.12790  0.19456  0.98699  1.0000
  O   O82       1.0  0.06667  0.07210  0.98699  1.0000
  O   O83       1.0  0.13333  0.12790  0.81906  1.0000
  O   O84       1.0  0.19456  0.06667  0.81906  1.0000
  O   O85       1.0  0.13877  0.00000  0.85265  1.0000
  O   O86       1.0  0.00544  0.07210  0.88623  1.0000
  O   O87       1.0  0.06123  0.06123  0.85265  1.0000
  O   O88       1.0  0.20000  0.13877  0.85265  1.0000
  O   O89       1.0  0.06667  0.19456  0.88623  1.0000
  O   O90       1.0  0.12790  0.13333  0.88623  1.0000
  Al  Al61      1.0  0.06667  0.33333  0.16037  1.0000
  Al  Al62      1.0  0.13333  0.26667  0.13434  1.0000
  Al  Al63      1.0  0.00000  0.20000  0.12678  1.0000
  Al  Al64      1.0  0.06667  0.33333  0.10076  1.0000
  Al  Al65      1.0  0.00000  0.20000  0.02602  1.0000
  Al  Al66      1.0  0.06667  0.33333  0.00000  1.0000
  Al  Al67      1.0  0.13333  0.26667  0.19395  1.0000
  Al  Al68      1.0  0.00000  0.20000  0.16793  1.0000
  Al  Al69      1.0  0.13333  0.26667  0.09319  1.0000
  Al  Al70      1.0  0.00000  0.20000  0.06717  1.0000
  Al  Al71      1.0  0.06667  0.33333  0.05961  1.0000
  Al  Al72      1.0  0.13333  0.26667  0.03359  1.0000
  O   O91       1.0  0.07210  0.26667  0.11377  1.0000
  O   O92       1.0  0.13877  0.33877  0.14735  1.0000
  O   O93       1.0  0.19456  0.32790  0.11377  1.0000
  O   O94       1.0  0.13333  0.20544  0.11377  1.0000
  O   O95       1.0  0.00000  0.26123  0.14735  1.0000
  O   O96       1.0  0.06123  0.20000  0.14735  1.0000
  O   O97       1.0  0.00544  0.33333  0.18094  1.0000
  O   O98       1.0  0.07210  0.20544  0.01301  1.0000
  O   O99       1.0  0.12790  0.39456  0.18094  1.0000
  O   O100      1.0  0.06667  0.27210  0.18094  1.0000
  O   O101      1.0  0.13333  0.32790  0.01301  1.0000
  O   O102      1.0  0.19456  0.26667  0.01301  1.0000
  O   O103      1.0  0.13877  0.20000  0.04660  1.0000
  O   O104      1.0  0.00544  0.27210  0.08018  1.0000
  O   O105      1.0  0.06123  0.26123  0.04660  1.0000
  O   O106      1.0  0.20000  0.33877  0.04660  1.0000
  O   O107      1.0  0.06667  0.39456  0.08018  1.0000
  O   O108      1.0  0.12790  0.33333  0.08018  1.0000
  Al  Al73      1.0  0.06667  0.33333  0.36188  1.0000
  Al  Al74      1.0  0.13333  0.26667  0.33585  1.0000
  Al  Al75      1.0  0.00000  0.20000  0.32829  1.0000
  Al  Al76      1.0  0.06667  0.33333  0.30227  1.0000
  Al  Al77      1.0  0.00000  0.20000  0.22754  1.0000
  Al  Al78      1.0  0.06667  0.33333  0.20151  1.0000
  Al  Al79      1.0  0.13333  0.26667  0.39546  1.0000
  Al  Al80      1.0  0.00000  0.20000  0.36944  1.0000
  Al  Al81      1.0  0.13333  0.26667  0.29471  1.0000
  Al  Al82      1.0  0.00000  0.20000  0.26868  1.0000
  Al  Al83      1.0  0.06667  0.33333  0.26112  1.0000
  Al  Al84      1.0  0.13333  0.26667  0.23510  1.0000
  O   O109      1.0  0.07210  0.26667  0.31528  1.0000
  O   O110      1.0  0.13877  0.33877  0.34887  1.0000
  O   O111      1.0  0.19456  0.32790  0.31528  1.0000
  O   O112      1.0  0.13333  0.20544  0.31528  1.0000
  O   O113      1.0  0.00000  0.26123  0.34887  1.0000
  O   O114      1.0  0.06123  0.20000  0.34887  1.0000
  O   O115      1.0  0.00544  0.33333  0.38245  1.0000
  O   O116      1.0  0.07210  0.20544  0.21452  1.0000
  O   O117      1.0  0.12790  0.39456  0.38245  1.0000
  O   O118      1.0  0.06667  0.27210  0.38245  1.0000
  O   O119      1.0  0.13333  0.32790  0.21452  1.0000
  O   O120      1.0  0.19456  0.26667  0.21452  1.0000
  O   O121      1.0  0.13877  0.20000  0.24811  1.0000
  O   O122      1.0  0.00544  0.27210  0.28169  1.0000
  O   O123      1.0  0.06123  0.26123  0.24811  1.0000
  O   O124      1.0  0.20000  0.33877  0.24811  1.0000
  O   O125      1.0  0.06667  0.39456  0.28169  1.0000
  O   O126      1.0  0.12790  0.33333  0.28169  1.0000
  Al  Al85      1.0  0.06667  0.33333  0.56339  1.0000
  Al  Al86      1.0  0.13333  0.26667  0.53737  1.0000
  Al  Al87      1.0  0.00000  0.20000  0.52980  1.0000
  Al  Al88      1.0  0.06667  0.33333  0.50378  1.0000
  Al  Al89      1.0  0.00000  0.20000  0.42905  1.0000
  Al  Al90      1.0  0.06667  0.33333  0.40302  1.0000
  Al  Al91      1.0  0.13333  0.26667  0.59698  1.0000
  Al  Al92      1.0  0.00000  0.20000  0.57095  1.0000
  Al  Al93      1.0  0.13333  0.26667  0.49622  1.0000
  Al  Al94      1.0  0.00000  0.20000  0.47020  1.0000
  Al  Al95      1.0  0.06667  0.33333  0.46263  1.0000
  Al  Al96      1.0  0.13333  0.26667  0.43661  1.0000
  O   O127      1.0  0.07210  0.26667  0.51679  1.0000
  O   O128      1.0  0.13877  0.33877  0.55038  1.0000
  O   O129      1.0  0.19456  0.32790  0.51679  1.0000
  O   O130      1.0  0.13333  0.20544  0.51679  1.0000
  O   O131      1.0  0.00000  0.26123  0.55038  1.0000
  O   O132      1.0  0.06123  0.20000  0.55038  1.0000
  O   O133      1.0  0.00544  0.33333  0.58396  1.0000
  O   O134      1.0  0.07210  0.20544  0.41604  1.0000
  O   O135      1.0  0.12790  0.39456  0.58396  1.0000
  O   O136      1.0  0.06667  0.27210  0.58396  1.0000
  O   O137      1.0  0.13333  0.32790  0.41604  1.0000
  O   O138      1.0  0.19456  0.26667  0.41604  1.0000
  O   O139      1.0  0.13877  0.20000  0.44962  1.0000
  O   O140      1.0  0.00544  0.27210  0.48321  1.0000
  O   O141      1.0  0.06123  0.26123  0.44962  1.0000
  O   O142      1.0  0.20000  0.33877  0.44962  1.0000
  O   O143      1.0  0.06667  0.39456  0.48321  1.0000
  O   O144      1.0  0.12790  0.33333  0.48321  1.0000
  Al  Al97      1.0  0.06667  0.33333  0.76490  1.0000
  Al  Al98      1.0  0.13333  0.26667  0.73888  1.0000
  Al  Al99      1.0  0.00000  0.20000  0.73132  1.0000
  Al  Al100     1.0  0.06667  0.33333  0.70529  1.0000
  Al  Al101     1.0  0.00000  0.20000  0.63056  1.0000
  Al  Al102     1.0  0.06667  0.33333  0.60454  1.0000
  Al  Al103     1.0  0.13333  0.26667  0.79849  1.0000
  Al  Al104     1.0  0.00000  0.20000  0.77246  1.0000
  Al  Al105     1.0  0.13333  0.26667  0.69773  1.0000
  Al  Al106     1.0  0.00000  0.20000  0.67171  1.0000
  Al  Al107     1.0  0.06667  0.33333  0.66415  1.0000
  Al  Al108     1.0  0.13333  0.26667  0.63812  1.0000
  O   O145      1.0  0.07210  0.26667  0.71831  1.0000
  O   O146      1.0  0.13877  0.33877  0.75189  1.0000
  O   O147      1.0  0.19456  0.32790  0.71831  1.0000
  O   O148      1.0  0.13333  0.20544  0.71831  1.0000
  O   O149      1.0  0.00000  0.26123  0.75189  1.0000
  O   O150      1.0  0.06123  0.20000  0.75189  1.0000
  O   O151      1.0  0.00544  0.33333  0.78548  1.0000
  O   O152      1.0  0.07210  0.20544  0.61755  1.0000
  O   O153      1.0  0.12790  0.39456  0.78548  1.0000
  O   O154      1.0  0.06667  0.27210  0.78548  1.0000
  O   O155      1.0  0.13333  0.32790  0.61755  1.0000
  O   O156      1.0  0.19456  0.26667  0.61755  1.0000
  O   O157      1.0  0.13877  0.20000  0.65113  1.0000
  O   O158      1.0  0.00544  0.27210  0.68472  1.0000
  O   O159      1.0  0.06123  0.26123  0.65113  1.0000
  O   O160      1.0  0.20000  0.33877  0.65113  1.0000
  O   O161      1.0  0.06667  0.39456  0.68472  1.0000
  O   O162      1.0  0.12790  0.33333  0.68472  1.0000
  Al  Al109     1.0  0.06667  0.33333  0.96641  1.0000
  Al  Al110     1.0  0.13333  0.26667  0.94039  1.0000
  Al  Al111     1.0  0.00000  0.20000  0.93283  1.0000
  Al  Al112     1.0  0.06667  0.33333  0.90681  1.0000
  Al  Al113     1.0  0.00000  0.20000  0.83207  1.0000
  Al  Al114     1.0  0.06667  0.33333  0.80605  1.0000
  Al  Al115     1.0  0.13333  0.26667  1.00000  1.0000
  Al  Al116     1.0  0.00000  0.20000  0.97398  1.0000
  Al  Al117     1.0  0.13333  0.26667  0.89924  1.0000
  Al  Al118     1.0  0.00000  0.20000  0.87322  1.0000
  Al  Al119     1.0  0.06667  0.33333  0.86566  1.0000
  Al  Al120     1.0  0.13333  0.26667  0.83963  1.0000
  O   O163      1.0  0.07210  0.26667  0.91982  1.0000
  O   O164      1.0  0.13877  0.33877  0.95340  1.0000
  O   O165      1.0  0.19456  0.32790  0.91982  1.0000
  O   O166      1.0  0.13333  0.20544  0.91982  1.0000
  O   O167      1.0  0.00000  0.26123  0.95340  1.0000
  O   O168      1.0  0.06123  0.20000  0.95340  1.0000
  O   O169      1.0  0.00544  0.33333  0.98699  1.0000
  O   O170      1.0  0.07210  0.20544  0.81906  1.0000
  O   O171      1.0  0.12790  0.39456  0.98699  1.0000
  O   O172      1.0  0.06667  0.27210  0.98699  1.0000
  O   O173      1.0  0.13333  0.32790  0.81906  1.0000
  O   O174      1.0  0.19456  0.26667  0.81906  1.0000
  O   O175      1.0  0.13877  0.20000  0.85265  1.0000
  O   O176      1.0  0.00544  0.27210  0.88623  1.0000
  O   O177      1.0  0.06123  0.26123  0.85265  1.0000
  O   O178      1.0  0.20000  0.33877  0.85265  1.0000
  O   O179      1.0  0.06667  0.39456  0.88623  1.0000
  O   O180      1.0  0.12790  0.33333  0.88623  1.0000
  Al  Al121     1.0  0.06667  0.53333  0.16037  1.0000
  Al  Al122     1.0  0.13333  0.46667  0.13434  1.0000
  Al  Al123     1.0  0.00000  0.40000  0.12678  1.0000
  Al  Al124     1.0  0.06667  0.53333  0.10076  1.0000
  Al  Al125     1.0  0.00000  0.40000  0.02602  1.0000
  Al  Al126     1.0  0.06667  0.53333  0.00000  1.0000
  Al  Al127     1.0  0.13333  0.46667  0.19395  1.0000
  Al  Al128     1.0  0.00000  0.40000  0.16793  1.0000
  Al  Al129     1.0  0.13333  0.46667  0.09319  1.0000
  Al  Al130     1.0  0.00000  0.40000  0.06717  1.0000
  Al  Al131     1.0  0.06667  0.53333  0.05961  1.0000
  Al  Al132     1.0  0.13333  0.46667  0.03359  1.0000
  O   O181      1.0  0.07210  0.46667  0.11377  1.0000
  O   O182      1.0  0.13877  0.53877  0.14735  1.0000
  O   O183      1.0  0.19456  0.52790  0.11377  1.0000
  O   O184      1.0  0.13333  0.40544  0.11377  1.0000
  O   O185      1.0  0.00000  0.46123  0.14735  1.0000
  O   O186      1.0  0.06123  0.40000  0.14735  1.0000
  O   O187      1.0  0.00544  0.53333  0.18094  1.0000
  O   O188      1.0  0.07210  0.40544  0.01301  1.0000
  O   O189      1.0  0.12790  0.59456  0.18094  1.0000
  O   O190      1.0  0.06667  0.47210  0.18094  1.0000
  O   O191      1.0  0.13333  0.52790  0.01301  1.0000
  O   O192      1.0  0.19456  0.46667  0.01301  1.0000
  O   O193      1.0  0.13877  0.40000  0.04660  1.0000
  O   O194      1.0  0.00544  0.47210  0.08018  1.0000
  O   O195      1.0  0.06123  0.46123  0.04660  1.0000
  O   O196      1.0  0.20000  0.53877  0.04660  1.0000
  O   O197      1.0  0.06667  0.59456  0.08018  1.0000
  O   O198      1.0  0.12790  0.53333  0.08018  1.0000
  Al  Al133     1.0  0.06667  0.53333  0.36188  1.0000
  Al  Al134     1.0  0.13333  0.46667  0.33585  1.0000
  Al  Al135     1.0  0.00000  0.40000  0.32829  1.0000
  Al  Al136     1.0  0.06667  0.53333  0.30227  1.0000
  Al  Al137     1.0  0.00000  0.40000  0.22754  1.0000
  Al  Al138     1.0  0.06667  0.53333  0.20151  1.0000
  Al  Al139     1.0  0.13333  0.46667  0.39546  1.0000
  Al  Al140     1.0  0.00000  0.40000  0.36944  1.0000
  Al  Al141     1.0  0.13333  0.46667  0.29471  1.0000
  Al  Al142     1.0  0.00000  0.40000  0.26868  1.0000
  Al  Al143     1.0  0.06667  0.53333  0.26112  1.0000
  Al  Al144     1.0  0.13333  0.46667  0.23510  1.0000
  O   O199      1.0  0.07210  0.46667  0.31528  1.0000
  O   O200      1.0  0.13877  0.53877  0.34887  1.0000
  O   O201      1.0  0.19456  0.52790  0.31528  1.0000
  O   O202      1.0  0.13333  0.40544  0.31528  1.0000
  O   O203      1.0  0.00000  0.46123  0.34887  1.0000
  O   O204      1.0  0.06123  0.40000  0.34887  1.0000
  O   O205      1.0  0.00544  0.53333  0.38245  1.0000
  O   O206      1.0  0.07210  0.40544  0.21452  1.0000
  O   O207      1.0  0.12790  0.59456  0.38245  1.0000
  O   O208      1.0  0.06667  0.47210  0.38245  1.0000
  O   O209      1.0  0.13333  0.52790  0.21452  1.0000
  O   O210      1.0  0.19456  0.46667  0.21452  1.0000
  O   O211      1.0  0.13877  0.40000  0.24811  1.0000
  O   O212      1.0  0.00544  0.47210  0.28169  1.0000
  O   O213      1.0  0.06123  0.46123  0.24811  1.0000
  O   O214      1.0  0.20000  0.53877  0.24811  1.0000
  O   O215      1.0  0.06667  0.59456  0.28169  1.0000
  O   O216      1.0  0.12790  0.53333  0.28169  1.0000
  Al  Al145     1.0  0.06667  0.53333  0.56339  1.0000
  Al  Al146     1.0  0.13333  0.46667  0.53737  1.0000
  Al  Al147     1.0  0.00000  0.40000  0.52980  1.0000
  Al  Al148     1.0  0.06667  0.53333  0.50378  1.0000
  Al  Al149     1.0  0.00000  0.40000  0.42905  1.0000
  Al  Al150     1.0  0.06667  0.53333  0.40302  1.0000
  Al  Al151     1.0  0.13333  0.46667  0.59698  1.0000
  Al  Al152     1.0  0.00000  0.40000  0.57095  1.0000
  Al  Al153     1.0  0.13333  0.46667  0.49622  1.0000
  Al  Al154     1.0  0.00000  0.40000  0.47020  1.0000
  Al  Al155     1.0  0.06667  0.53333  0.46263  1.0000
  Al  Al156     1.0  0.13333  0.46667  0.43661  1.0000
  O   O217      1.0  0.07210  0.46667  0.51679  1.0000
  O   O218      1.0  0.13877  0.53877  0.55038  1.0000
  O   O219      1.0  0.19456  0.52790  0.51679  1.0000
  O   O220      1.0  0.13333  0.40544  0.51679  1.0000
  O   O221      1.0  0.00000  0.46123  0.55038  1.0000
  O   O222      1.0  0.06123  0.40000  0.55038  1.0000
  O   O223      1.0  0.00544  0.53333  0.58396  1.0000
  O   O224      1.0  0.07210  0.40544  0.41604  1.0000
  O   O225      1.0  0.12790  0.59456  0.58396  1.0000
  O   O226      1.0  0.06667  0.47210  0.58396  1.0000
  O   O227      1.0  0.13333  0.52790  0.41604  1.0000
  O   O228      1.0  0.19456  0.46667  0.41604  1.0000
  O   O229      1.0  0.13877  0.40000  0.44962  1.0000
  O   O230      1.0  0.00544  0.47210  0.48321  1.0000
  O   O231      1.0  0.06123  0.46123  0.44962  1.0000
  O   O232      1.0  0.20000  0.53877  0.44962  1.0000
  O   O233      1.0  0.06667  0.59456  0.48321  1.0000
  O   O234      1.0  0.12790  0.53333  0.48321  1.0000
  Al  Al157     1.0  0.06667  0.53333  0.76490  1.0000
  Al  Al158     1.0  0.13333  0.46667  0.73888  1.0000
  Al  Al159     1.0  0.00000  0.40000  0.73132  1.0000
  Al  Al160     1.0  0.06667  0.53333  0.70529  1.0000
  Al  Al161     1.0  0.00000  0.40000  0.63056  1.0000
  Al  Al162     1.0  0.06667  0.53333  0.60454  1.0000
  Al  Al163     1.0  0.13333  0.46667  0.79849  1.0000
  Al  Al164     1.0  0.00000  0.40000  0.77246  1.0000
  Al  Al165     1.0  0.13333  0.46667  0.69773  1.0000
  Al  Al166     1.0  0.00000  0.40000  0.67171  1.0000
  Al  Al167     1.0  0.06667  0.53333  0.66415  1.0000
  Al  Al168     1.0  0.13333  0.46667  0.63812  1.0000
  O   O235      1.0  0.07210  0.46667  0.71831  1.0000
  O   O236      1.0  0.13877  0.53877  0.75189  1.0000
  O   O237      1.0  0.19456  0.52790  0.71831  1.0000
  O   O238      1.0  0.13333  0.40544  0.71831  1.0000
  O   O239      1.0  0.00000  0.46123  0.75189  1.0000
  O   O240      1.0  0.06123  0.40000  0.75189  1.0000
  O   O241      1.0  0.00544  0.53333  0.78548  1.0000
  O   O242      1.0  0.07210  0.40544  0.61755  1.0000
  O   O243      1.0  0.12790  0.59456  0.78548  1.0000
  O   O244      1.0  0.06667  0.47210  0.78548  1.0000
  O   O245      1.0  0.13333  0.52790  0.61755  1.0000
  O   O246      1.0  0.19456  0.46667  0.61755  1.0000
  O   O247      1.0  0.13877  0.40000  0.65113  1.0000
  O   O248      1.0  0.00544  0.47210  0.68472  1.0000
  O   O249      1.0  0.06123  0.46123  0.65113  1.0000
  O   O250      1.0  0.20000  0.53877  0.65113  1.0000
  O   O251      1.0  0.06667  0.59456  0.68472  1.0000
  O   O252      1.0  0.12790  0.53333  0.68472  1.0000
  Al  Al169     1.0  0.06667  0.53333  0.96641  1.0000
  Al  Al170     1.0  0.13333  0.46667  0.94039  1.0000
  Al  Al171     1.0  0.00000  0.40000  0.93283  1.0000
  Al  Al172     1.0  0.06667  0.53333  0.90681  1.0000
  Al  Al173     1.0  0.00000  0.40000  0.83207  1.0000
  Al  Al174     1.0  0.06667  0.53333  0.80605  1.0000
  Al  Al175     1.0  0.13333  0.46667  1.00000  1.0000
  Al  Al176     1.0  0.00000  0.40000  0.97398  1.0000
  Al  Al177     1.0  0.13333  0.46667  0.89924  1.0000
  Al  Al178     1.0  0.00000  0.40000  0.87322  1.0000
  Al  Al179     1.0  0.06667  0.53333  0.86566  1.0000
  Al  Al180     1.0  0.13333  0.46667  0.83963  1.0000
  O   O253      1.0  0.07210  0.46667  0.91982  1.0000
  O   O254      1.0  0.13877  0.53877  0.95340  1.0000
  O   O255      1.0  0.19456  0.52790  0.91982  1.0000
  O   O256      1.0  0.13333  0.40544  0.91982  1.0000
  O   O257      1.0  0.00000  0.46123  0.95340  1.0000
  O   O258      1.0  0.06123  0.40000  0.95340  1.0000
  O   O259      1.0  0.00544  0.53333  0.98699  1.0000
  O   O260      1.0  0.07210  0.40544  0.81906  1.0000
  O   O261      1.0  0.12790  0.59456  0.98699  1.0000
  O   O262      1.0  0.06667  0.47210  0.98699  1.0000
  O   O263      1.0  0.13333  0.52790  0.81906  1.0000
  O   O264      1.0  0.19456  0.46667  0.81906  1.0000
  O   O265      1.0  0.13877  0.40000  0.85265  1.0000
  O   O266      1.0  0.00544  0.47210  0.88623  1.0000
  O   O267      1.0  0.06123  0.46123  0.85265  1.0000
  O   O268      1.0  0.20000  0.53877  0.85265  1.0000
  O   O269      1.0  0.06667  0.59456  0.88623  1.0000
  O   O270      1.0  0.12790  0.53333  0.88623  1.0000
  Al  Al181     1.0  0.06667  0.73333  0.16037  1.0000
  Al  Al182     1.0  0.13333  0.66667  0.13434  1.0000
  Al  Al183     1.0  0.00000  0.60000  0.12678  1.0000
  Al  Al184     1.0  0.06667  0.73333  0.10076  1.0000
  Al  Al185     1.0  0.00000  0.60000  0.02602  1.0000
  Al  Al186     1.0  0.06667  0.73333  0.00000  1.0000
  Al  Al187     1.0  0.13333  0.66667  0.19395  1.0000
  Al  Al188     1.0  0.00000  0.60000  0.16793  1.0000
  Al  Al189     1.0  0.13333  0.66667  0.09319  1.0000
  Al  Al190     1.0  0.00000  0.60000  0.06717  1.0000
  Al  Al191     1.0  0.06667  0.73333  0.05961  1.0000
  Al  Al192     1.0  0.13333  0.66667  0.03359  1.0000
  O   O271      1.0  0.07210  0.66667  0.11377  1.0000
  O   O272      1.0  0.13877  0.73877  0.14735  1.0000
  O   O273      1.0  0.19456  0.72790  0.11377  1.0000
  O   O274      1.0  0.13333  0.60544  0.11377  1.0000
  O   O275      1.0  0.00000  0.66123  0.14735  1.0000
  O   O276      1.0  0.06123  0.60000  0.14735  1.0000
  O   O277      1.0  0.00544  0.73333  0.18094  1.0000
  O   O278      1.0  0.07210  0.60544  0.01301  1.0000
  O   O279      1.0  0.12790  0.79456  0.18094  1.0000
  O   O280      1.0  0.06667  0.67210  0.18094  1.0000
  O   O281      1.0  0.13333  0.72790  0.01301  1.0000
  O   O282      1.0  0.19456  0.66667  0.01301  1.0000
  O   O283      1.0  0.13877  0.60000  0.04660  1.0000
  O   O284      1.0  0.00544  0.67210  0.08018  1.0000
  O   O285      1.0  0.06123  0.66123  0.04660  1.0000
  O   O286      1.0  0.20000  0.73877  0.04660  1.0000
  O   O287      1.0  0.06667  0.79456  0.08018  1.0000
  O   O288      1.0  0.12790  0.73333  0.08018  1.0000
  Al  Al193     1.0  0.06667  0.73333  0.36188  1.0000
  Al  Al194     1.0  0.13333  0.66667  0.33585  1.0000
  Al  Al195     1.0  0.00000  0.60000  0.32829  1.0000
  Al  Al196     1.0  0.06667  0.73333  0.30227  1.0000
  Al  Al197     1.0  0.00000  0.60000  0.22754  1.0000
  Al  Al198     1.0  0.06667  0.73333  0.20151  1.0000
  Al  Al199     1.0  0.13333  0.66667  0.39546  1.0000
  Al  Al200     1.0  0.00000  0.60000  0.36944  1.0000
  Al  Al201     1.0  0.13333  0.66667  0.29471  1.0000
  Al  Al202     1.0  0.00000  0.60000  0.26868  1.0000
  Al  Al203     1.0  0.06667  0.73333  0.26112  1.0000
  Al  Al204     1.0  0.13333  0.66667  0.23510  1.0000
  O   O289      1.0  0.07210  0.66667  0.31528  1.0000
  O   O290      1.0  0.13877  0.73877  0.34887  1.0000
  O   O291      1.0  0.19456  0.72790  0.31528  1.0000
  O   O292      1.0  0.13333  0.60544  0.31528  1.0000
  O   O293      1.0  0.00000  0.66123  0.34887  1.0000
  O   O294      1.0  0.06123  0.60000  0.34887  1.0000
  O   O295      1.0  0.00544  0.73333  0.38245  1.0000
  O   O296      1.0  0.07210  0.60544  0.21452  1.0000
  O   O297      1.0  0.12790  0.79456  0.38245  1.0000
  O   O298      1.0  0.06667  0.67210  0.38245  1.0000
  O   O299      1.0  0.13333  0.72790  0.21452  1.0000
  O   O300      1.0  0.19456  0.66667  0.21452  1.0000
  O   O301      1.0  0.13877  0.60000  0.24811  1.0000
  O   O302      1.0  0.00544  0.67210  0.28169  1.0000
  O   O303      1.0  0.06123  0.66123  0.24811  1.0000
  O   O304      1.0  0.20000  0.73877  0.24811  1.0000
  O   O305      1.0  0.06667  0.79456  0.28169  1.0000
  O   O306      1.0  0.12790  0.73333  0.28169  1.0000
  Al  Al205     1.0  0.06667  0.73333  0.56339  1.0000
  Al  Al206     1.0  0.13333  0.66667  0.53737  1.0000
  Al  Al207     1.0  0.00000  0.60000  0.52980  1.0000
  Al  Al208     1.0  0.06667  0.73333  0.50378  1.0000
  Al  Al209     1.0  0.00000  0.60000  0.42905  1.0000
  Al  Al210     1.0  0.06667  0.73333  0.40302  1.0000
  Al  Al211     1.0  0.13333  0.66667  0.59698  1.0000
  Al  Al212     1.0  0.00000  0.60000  0.57095  1.0000
  Al  Al213     1.0  0.13333  0.66667  0.49622  1.0000
  Al  Al214     1.0  0.00000  0.60000  0.47020  1.0000
  Al  Al215     1.0  0.06667  0.73333  0.46263  1.0000
  Al  Al216     1.0  0.13333  0.66667  0.43661  1.0000
  O   O307      1.0  0.07210  0.66667  0.51679  1.0000
  O   O308      1.0  0.13877  0.73877  0.55038  1.0000
  O   O309      1.0  0.19456  0.72790  0.51679  1.0000
  O   O310      1.0  0.13333  0.60544  0.51679  1.0000
  O   O311      1.0  0.00000  0.66123  0.55038  1.0000
  O   O312      1.0  0.06123  0.60000  0.55038  1.0000
  O   O313      1.0  0.00544  0.73333  0.58396  1.0000
  O   O314      1.0  0.07210  0.60544  0.41604  1.0000
  O   O315      1.0  0.12790  0.79456  0.58396  1.0000
  O   O316      1.0  0.06667  0.67210  0.58396  1.0000
  O   O317      1.0  0.13333  0.72790  0.41604  1.0000
  O   O318      1.0  0.19456  0.66667  0.41604  1.0000
  O   O319      1.0  0.13877  0.60000  0.44962  1.0000
  O   O320      1.0  0.00544  0.67210  0.48321  1.0000
  O   O321      1.0  0.06123  0.66123  0.44962  1.0000
  O   O322      1.0  0.20000  0.73877  0.44962  1.0000
  O   O323      1.0  0.06667  0.79456  0.48321  1.0000
  O   O324      1.0  0.12790  0.73333  0.48321  1.0000
  Al  Al217     1.0  0.06667  0.73333  0.76490  1.0000
  Al  Al218     1.0  0.13333  0.66667  0.73888  1.0000
  Al  Al219     1.0  0.00000  0.60000  0.73132  1.0000
  Al  Al220     1.0  0.06667  0.73333  0.70529  1.0000
  Al  Al221     1.0  0.00000  0.60000  0.63056  1.0000
  Al  Al222     1.0  0.06667  0.73333  0.60454  1.0000
  Al  Al223     1.0  0.13333  0.66667  0.79849  1.0000
  Al  Al224     1.0  0.00000  0.60000  0.77246  1.0000
  Al  Al225     1.0  0.13333  0.66667  0.69773  1.0000
  Al  Al226     1.0  0.00000  0.60000  0.67171  1.0000
  Al  Al227     1.0  0.06667  0.73333  0.66415  1.0000
  Al  Al228     1.0  0.13333  0.66667  0.63812  1.0000
  O   O325      1.0  0.07210  0.66667  0.71831  1.0000
  O   O326      1.0  0.13877  0.73877  0.75189  1.0000
  O   O327      1.0  0.19456  0.72790  0.71831  1.0000
  O   O328      1.0  0.13333  0.60544  0.71831  1.0000
  O   O329      1.0  0.00000  0.66123  0.75189  1.0000
  O   O330      1.0  0.06123  0.60000  0.75189  1.0000
  O   O331      1.0  0.00544  0.73333  0.78548  1.0000
  O   O332      1.0  0.07210  0.60544  0.61755  1.0000
  O   O333      1.0  0.12790  0.79456  0.78548  1.0000
  O   O334      1.0  0.06667  0.67210  0.78548  1.0000
  O   O335      1.0  0.13333  0.72790  0.61755  1.0000
  O   O336      1.0  0.19456  0.66667  0.61755  1.0000
  O   O337      1.0  0.13877  0.60000  0.65113  1.0000
  O   O338      1.0  0.00544  0.67210  0.68472  1.0000
  O   O339      1.0  0.06123  0.66123  0.65113  1.0000
  O   O340      1.0  0.20000  0.73877  0.65113  1.0000
  O   O341      1.0  0.06667  0.79456  0.68472  1.0000
  O   O342      1.0  0.12790  0.73333  0.68472  1.0000
  Al  Al229     1.0  0.06667  0.73333  0.96641  1.0000
  Al  Al230     1.0  0.13333  0.66667  0.94039  1.0000
  Al  Al231     1.0  0.00000  0.60000  0.93283  1.0000
  Al  Al232     1.0  0.06667  0.73333  0.90681  1.0000
  Al  Al233     1.0  0.00000  0.60000  0.83207  1.0000
  Al  Al234     1.0  0.06667  0.73333  0.80605  1.0000
  Al  Al235     1.0  0.13333  0.66667  1.00000  1.0000
  Al  Al236     1.0  0.00000  0.60000  0.97398  1.0000
  Al  Al237     1.0  0.13333  0.66667  0.89924  1.0000
  Al  Al238     1.0  0.00000  0.60000  0.87322  1.0000
  Al  Al239     1.0  0.06667  0.73333  0.86566  1.0000
  Al  Al240     1.0  0.13333  0.66667  0.83963  1.0000
  O   O343      1.0  0.07210  0.66667  0.91982  1.0000
  O   O344      1.0  0.13877  0.73877  0.95340  1.0000
  O   O345      1.0  0.19456  0.72790  0.91982  1.0000
  O   O346      1.0  0.13333  0.60544  0.91982  1.0000
  O   O347      1.0  0.00000  0.66123  0.95340  1.0000
  O   O348      1.0  0.06123  0.60000  0.95340  1.0000
  O   O349      1.0  0.00544  0.73333  0.98699  1.0000
  O   O350      1.0  0.07210  0.60544  0.81906  1.0000
  O   O351      1.0  0.12790  0.79456  0.98699  1.0000
  O   O352      1.0  0.06667  0.67210  0.98699  1.0000
  O   O353      1.0  0.13333  0.72790  0.81906  1.0000
  O   O354      1.0  0.19456  0.66667  0.81906  1.0000
  O   O355      1.0  0.13877  0.60000  0.85265  1.0000
  O   O356      1.0  0.00544  0.67210  0.88623  1.0000
  O   O357      1.0  0.06123  0.66123  0.85265  1.0000
  O   O358      1.0  0.20000  0.73877  0.85265  1.0000
  O   O359      1.0  0.06667  0.79456  0.88623  1.0000
  O   O360      1.0  0.12790  0.73333  0.88623  1.0000
  Al  Al241     1.0  0.06667  0.93333  0.16037  1.0000
  Al  Al242     1.0  0.13333  0.86667  0.13434  1.0000
  Al  Al243     1.0  0.00000  0.80000  0.12678  1.0000
  Al  Al244     1.0  0.06667  0.93333  0.10076  1.0000
  Al  Al245     1.0  0.00000  0.80000  0.02602  1.0000
  Al  Al246     1.0  0.06667  0.93333  0.00000  1.0000
  Al  Al247     1.0  0.13333  0.86667  0.19395  1.0000
  Al  Al248     1.0  0.00000  0.80000  0.16793  1.0000
  Al  Al249     1.0  0.13333  0.86667  0.09319  1.0000
  Al  Al250     1.0  0.00000  0.80000  0.06717  1.0000
  Al  Al251     1.0  0.06667  0.93333  0.05961  1.0000
  Al  Al252     1.0  0.13333  0.86667  0.03359  1.0000
  O   O361      1.0  0.07210  0.86667  0.11377  1.0000
  O   O362      1.0  0.13877  0.93877  0.14735  1.0000
  O   O363      1.0  0.19456  0.92790  0.11377  1.0000
  O   O364      1.0  0.13333  0.80544  0.11377  1.0000
  O   O365      1.0  1.00000  0.86123  0.14735  1.0000
  O   O366      1.0  0.06123  0.80000  0.14735  1.0000
  O   O367      1.0  0.00544  0.93333  0.18094  1.0000
  O   O368      1.0  0.07210  0.80544  0.01301  1.0000
  O   O369      1.0  0.12790  0.99456  0.18094  1.0000
  O   O370      1.0  0.06667  0.87210  0.18094  1.0000
  O   O371      1.0  0.13333  0.92790  0.01301  1.0000
  O   O372      1.0  0.19456  0.86667  0.01301  1.0000
  O   O373      1.0  0.13877  0.80000  0.04660  1.0000
  O   O374      1.0  0.00544  0.87210  0.08018  1.0000
  O   O375      1.0  0.06123  0.86123  0.04660  1.0000
  O   O376      1.0  0.20000  0.93877  0.04660  1.0000
  O   O377      1.0  0.06667  0.99456  0.08018  1.0000
  O   O378      1.0  0.12790  0.93333  0.08018  1.0000
  Al  Al253     1.0  0.06667  0.93333  0.36188  1.0000
  Al  Al254     1.0  0.13333  0.86667  0.33585  1.0000
  Al  Al255     1.0  0.00000  0.80000  0.32829  1.0000
  Al  Al256     1.0  0.06667  0.93333  0.30227  1.0000
  Al  Al257     1.0  0.00000  0.80000  0.22754  1.0000
  Al  Al258     1.0  0.06667  0.93333  0.20151  1.0000
  Al  Al259     1.0  0.13333  0.86667  0.39546  1.0000
  Al  Al260     1.0  0.00000  0.80000  0.36944  1.0000
  Al  Al261     1.0  0.13333  0.86667  0.29471  1.0000
  Al  Al262     1.0  0.00000  0.80000  0.26868  1.0000
  Al  Al263     1.0  0.06667  0.93333  0.26112  1.0000
  Al  Al264     1.0  0.13333  0.86667  0.23510  1.0000
  O   O379      1.0  0.07210  0.86667  0.31528  1.0000
  O   O380      1.0  0.13877  0.93877  0.34887  1.0000
  O   O381      1.0  0.19456  0.92790  0.31528  1.0000
  O   O382      1.0  0.13333  0.80544  0.31528  1.0000
  O   O383      1.0  1.00000  0.86123  0.34887  1.0000
  O   O384      1.0  0.06123  0.80000  0.34887  1.0000
  O   O385      1.0  0.00544  0.93333  0.38245  1.0000
  O   O386      1.0  0.07210  0.80544  0.21452  1.0000
  O   O387      1.0  0.12790  0.99456  0.38245  1.0000
  O   O388      1.0  0.06667  0.87210  0.38245  1.0000
  O   O389      1.0  0.13333  0.92790  0.21452  1.0000
  O   O390      1.0  0.19456  0.86667  0.21452  1.0000
  O   O391      1.0  0.13877  0.80000  0.24811  1.0000
  O   O392      1.0  0.00544  0.87210  0.28169  1.0000
  O   O393      1.0  0.06123  0.86123  0.24811  1.0000
  O   O394      1.0  0.20000  0.93877  0.24811  1.0000
  O   O395      1.0  0.06667  0.99456  0.28169  1.0000
  O   O396      1.0  0.12790  0.93333  0.28169  1.0000
  Al  Al265     1.0  0.06667  0.93333  0.56339  1.0000
  Al  Al266     1.0  0.13333  0.86667  0.53737  1.0000
  Al  Al267     1.0  0.00000  0.80000  0.52980  1.0000
  Al  Al268     1.0  0.06667  0.93333  0.50378  1.0000
  Al  Al269     1.0  0.00000  0.80000  0.42905  1.0000
  Al  Al270     1.0  0.06667  0.93333  0.40302  1.0000
  Al  Al271     1.0  0.13333  0.86667  0.59698  1.0000
  Al  Al272     1.0  0.00000  0.80000  0.57095  1.0000
  Al  Al273     1.0  0.13333  0.86667  0.49622  1.0000
  Al  Al274     1.0  0.00000  0.80000  0.47020  1.0000
  Al  Al275     1.0  0.06667  0.93333  0.46263  1.0000
  Al  Al276     1.0  0.13333  0.86667  0.43661  1.0000
  O   O397      1.0  0.07210  0.86667  0.51679  1.0000
  O   O398      1.0  0.13877  0.93877  0.55038  1.0000
  O   O399      1.0  0.19456  0.92790  0.51679  1.0000
  O   O400      1.0  0.13333  0.80544  0.51679  1.0000
  O   O401      1.0  1.00000  0.86123  0.55038  1.0000
  O   O402      1.0  0.06123  0.80000  0.55038  1.0000
  O   O403      1.0  0.00544  0.93333  0.58396  1.0000
  O   O404      1.0  0.07210  0.80544  0.41604  1.0000
  O   O405      1.0  0.12790  0.99456  0.58396  1.0000
  O   O406      1.0  0.06667  0.87210  0.58396  1.0000
  O   O407      1.0  0.13333  0.92790  0.41604  1.0000
  O   O408      1.0  0.19456  0.86667  0.41604  1.0000
  O   O409      1.0  0.13877  0.80000  0.44962  1.0000
  O   O410      1.0  0.00544  0.87210  0.48321  1.0000
  O   O411      1.0  0.06123  0.86123  0.44962  1.0000
  O   O412      1.0  0.20000  0.93877  0.44962  1.0000
  O   O413      1.0  0.06667  0.99456  0.48321  1.0000
  O   O414      1.0  0.12790  0.93333  0.48321  1.0000
  Al  Al277     1.0  0.06667  0.93333  0.76490  1.0000
  Al  Al278     1.0  0.13333  0.86667  0.73888  1.0000
  Al  Al279     1.0  0.00000  0.80000  0.73132  1.0000
  Al  Al280     1.0  0.06667  0.93333  0.70529  1.0000
  Al  Al281     1.0  0.00000  0.80000  0.63056  1.0000
  Al  Al282     1.0  0.06667  0.93333  0.60454  1.0000
  Al  Al283     1.0  0.13333  0.86667  0.79849  1.0000
  Al  Al284     1.0  0.00000  0.80000  0.77246  1.0000
  Al  Al285     1.0  0.13333  0.86667  0.69773  1.0000
  Al  Al286     1.0  0.00000  0.80000  0.67171  1.0000
  Al  Al287     1.0  0.06667  0.93333  0.66415  1.0000
  Al  Al288     1.0  0.13333  0.86667  0.63812  1.0000
  O   O415      1.0  0.07210  0.86667  0.71831  1.0000
  O   O416      1.0  0.13877  0.93877  0.75189  1.0000
  O   O417      1.0  0.19456  0.92790  0.71831  1.0000
  O   O418      1.0  0.13333  0.80544  0.71831  1.0000
  O   O419      1.0  1.00000  0.86123  0.75189  1.0000
  O   O420      1.0  0.06123  0.80000  0.75189  1.0000
  O   O421      1.0  0.00544  0.93333  0.78548  1.0000
  O   O422      1.0  0.07210  0.80544  0.61755  1.0000
  O   O423      1.0  0.12790  0.99456  0.78548  1.0000
  O   O424      1.0  0.06667  0.87210  0.78548  1.0000
  O   O425      1.0  0.13333  0.92790  0.61755  1.0000
  O   O426      1.0  0.19456  0.86667  0.61755  1.0000
  O   O427      1.0  0.13877  0.80000  0.65113  1.0000
  O   O428      1.0  0.00544  0.87210  0.68472  1.0000
  O   O429      1.0  0.06123  0.86123  0.65113  1.0000
  O   O430      1.0  0.20000  0.93877  0.65113  1.0000
  O   O431      1.0  0.06667  0.99456  0.68472  1.0000
  O   O432      1.0  0.12790  0.93333  0.68472  1.0000
  Al  Al289     1.0  0.06667  0.93333  0.96641  1.0000
  Al  Al290     1.0  0.13333  0.86667  0.94039  1.0000
  Al  Al291     1.0  0.00000  0.80000  0.93283  1.0000
  Al  Al292     1.0  0.06667  0.93333  0.90681  1.0000
  Al  Al293     1.0  0.00000  0.80000  0.83207  1.0000
  Al  Al294     1.0  0.06667  0.93333  0.80605  1.0000
  Al  Al295     1.0  0.13333  0.86667  1.00000  1.0000
  Al  Al296     1.0  0.00000  0.80000  0.97398  1.0000
  Al  Al297     1.0  0.13333  0.86667  0.89924  1.0000
  Al  Al298     1.0  0.00000  0.80000  0.87322  1.0000
  Al  Al299     1.0  0.06667  0.93333  0.86566  1.0000
  Al  Al300     1.0  0.13333  0.86667  0.83963  1.0000
  O   O433      1.0  0.07210  0.86667  0.91982  1.0000
  O   O434      1.0  0.13877  0.93877  0.95340  1.0000
  O   O435      1.0  0.19456  0.92790  0.91982  1.0000
  O   O436      1.0  0.13333  0.80544  0.91982  1.0000
  O   O437      1.0  1.00000  0.86123  0.95340  1.0000
  O   O438      1.0  0.06123  0.80000  0.95340  1.0000
  O   O439      1.0  0.00544  0.93333  0.98699  1.0000
  O   O440      1.0  0.07210  0.80544  0.81906  1.0000
  O   O441      1.0  0.12790  0.99456  0.98699  1.0000
  O   O442      1.0  0.06667  0.87210  0.98699  1.0000
  O   O443      1.0  0.13333  0.92790  0.81906  1.0000
  O   O444      1.0  0.19456  0.86667  0.81906  1.0000
  O   O445      1.0  0.13877  0.80000  0.85265  1.0000
  O   O446      1.0  0.00544  0.87210  0.88623  1.0000
  O   O447      1.0  0.06123  0.86123  0.85265  1.0000
  O   O448      1.0  0.20000  0.93877  0.85265  1.0000
  O   O449      1.0  0.06667  0.99456  0.88623  1.0000
  O   O450      1.0  0.12790  0.93333  0.88623  1.0000
  Al  Al301     1.0  0.26667  0.13333  0.16037  1.0000
  Al  Al302     1.0  0.33333  0.06667  0.13434  1.0000
  Al  Al303     1.0  0.20000  0.00000  0.12678  1.0000
  Al  Al304     1.0  0.26667  0.13333  0.10076  1.0000
  Al  Al305     1.0  0.20000  0.00000  0.02602  1.0000
  Al  Al306     1.0  0.26667  0.13333  0.00000  1.0000
  Al  Al307     1.0  0.33333  0.06667  0.19395  1.0000
  Al  Al308     1.0  0.20000  0.00000  0.16793  1.0000
  Al  Al309     1.0  0.33333  0.06667  0.09319  1.0000
  Al  Al310     1.0  0.20000  0.00000  0.06717  1.0000
  Al  Al311     1.0  0.26667  0.13333  0.05961  1.0000
  Al  Al312     1.0  0.33333  0.06667  0.03359  1.0000
  O   O451      1.0  0.27210  0.06667  0.11377  1.0000
  O   O452      1.0  0.33877  0.13877  0.14735  1.0000
  O   O453      1.0  0.39456  0.12790  0.11377  1.0000
  O   O454      1.0  0.33333  0.00544  0.11377  1.0000
  O   O455      1.0  0.20000  0.06123  0.14735  1.0000
  O   O456      1.0  0.26123  0.00000  0.14735  1.0000
  O   O457      1.0  0.20544  0.13333  0.18094  1.0000
  O   O458      1.0  0.27210  0.00544  0.01301  1.0000
  O   O459      1.0  0.32790  0.19456  0.18094  1.0000
  O   O460      1.0  0.26667  0.07210  0.18094  1.0000
  O   O461      1.0  0.33333  0.12790  0.01301  1.0000
  O   O462      1.0  0.39456  0.06667  0.01301  1.0000
  O   O463      1.0  0.33877  0.00000  0.04660  1.0000
  O   O464      1.0  0.20544  0.07210  0.08018  1.0000
  O   O465      1.0  0.26123  0.06123  0.04660  1.0000
  O   O466      1.0  0.40000  0.13877  0.04660  1.0000
  O   O467      1.0  0.26667  0.19456  0.08018  1.0000
  O   O468      1.0  0.32790  0.13333  0.08018  1.0000
  Al  Al313     1.0  0.26667  0.13333  0.36188  1.0000
  Al  Al314     1.0  0.33333  0.06667  0.33585  1.0000
  Al  Al315     1.0  0.20000  0.00000  0.32829  1.0000
  Al  Al316     1.0  0.26667  0.13333  0.30227  1.0000
  Al  Al317     1.0  0.20000  0.00000  0.22754  1.0000
  Al  Al318     1.0  0.26667  0.13333  0.20151  1.0000
  Al  Al319     1.0  0.33333  0.06667  0.39546  1.0000
  Al  Al320     1.0  0.20000  0.00000  0.36944  1.0000
  Al  Al321     1.0  0.33333  0.06667  0.29471  1.0000
  Al  Al322     1.0  0.20000  0.00000  0.26868  1.0000
  Al  Al323     1.0  0.26667  0.13333  0.26112  1.0000
  Al  Al324     1.0  0.33333  0.06667  0.23510  1.0000
  O   O469      1.0  0.27210  0.06667  0.31528  1.0000
  O   O470      1.0  0.33877  0.13877  0.34887  1.0000
  O   O471      1.0  0.39456  0.12790  0.31528  1.0000
  O   O472      1.0  0.33333  0.00544  0.31528  1.0000
  O   O473      1.0  0.20000  0.06123  0.34887  1.0000
  O   O474      1.0  0.26123  0.00000  0.34887  1.0000
  O   O475      1.0  0.20544  0.13333  0.38245  1.0000
  O   O476      1.0  0.27210  0.00544  0.21452  1.0000
  O   O477      1.0  0.32790  0.19456  0.38245  1.0000
  O   O478      1.0  0.26667  0.07210  0.38245  1.0000
  O   O479      1.0  0.33333  0.12790  0.21452  1.0000
  O   O480      1.0  0.39456  0.06667  0.21452  1.0000
  O   O481      1.0  0.33877  0.00000  0.24811  1.0000
  O   O482      1.0  0.20544  0.07210  0.28169  1.0000
  O   O483      1.0  0.26123  0.06123  0.24811  1.0000
  O   O484      1.0  0.40000  0.13877  0.24811  1.0000
  O   O485      1.0  0.26667  0.19456  0.28169  1.0000
  O   O486      1.0  0.32790  0.13333  0.28169  1.0000
  Al  Al325     1.0  0.26667  0.13333  0.56339  1.0000
  Al  Al326     1.0  0.33333  0.06667  0.53737  1.0000
  Al  Al327     1.0  0.20000  0.00000  0.52980  1.0000
  Al  Al328     1.0  0.26667  0.13333  0.50378  1.0000
  Al  Al329     1.0  0.20000  0.00000  0.42905  1.0000
  Al  Al330     1.0  0.26667  0.13333  0.40302  1.0000
  Al  Al331     1.0  0.33333  0.06667  0.59698  1.0000
  Al  Al332     1.0  0.20000  0.00000  0.57095  1.0000
  Al  Al333     1.0  0.33333  0.06667  0.49622  1.0000
  Al  Al334     1.0  0.20000  0.00000  0.47020  1.0000
  Al  Al335     1.0  0.26667  0.13333  0.46263  1.0000
  Al  Al336     1.0  0.33333  0.06667  0.43661  1.0000
  O   O487      1.0  0.27210  0.06667  0.51679  1.0000
  O   O488      1.0  0.33877  0.13877  0.55038  1.0000
  O   O489      1.0  0.39456  0.12790  0.51679  1.0000
  O   O490      1.0  0.33333  0.00544  0.51679  1.0000
  O   O491      1.0  0.20000  0.06123  0.55038  1.0000
  O   O492      1.0  0.26123  0.00000  0.55038  1.0000
  O   O493      1.0  0.20544  0.13333  0.58396  1.0000
  O   O494      1.0  0.27210  0.00544  0.41604  1.0000
  O   O495      1.0  0.32790  0.19456  0.58396  1.0000
  O   O496      1.0  0.26667  0.07210  0.58396  1.0000
  O   O497      1.0  0.33333  0.12790  0.41604  1.0000
  O   O498      1.0  0.39456  0.06667  0.41604  1.0000
  O   O499      1.0  0.33877  0.00000  0.44962  1.0000
  O   O500      1.0  0.20544  0.07210  0.48321  1.0000
  O   O501      1.0  0.26123  0.06123  0.44962  1.0000
  O   O502      1.0  0.40000  0.13877  0.44962  1.0000
  O   O503      1.0  0.26667  0.19456  0.48321  1.0000
  O   O504      1.0  0.32790  0.13333  0.48321  1.0000
  Al  Al337     1.0  0.26667  0.13333  0.76490  1.0000
  Al  Al338     1.0  0.33333  0.06667  0.73888  1.0000
  Al  Al339     1.0  0.20000  0.00000  0.73132  1.0000
  Al  Al340     1.0  0.26667  0.13333  0.70529  1.0000
  Al  Al341     1.0  0.20000  0.00000  0.63056  1.0000
  Al  Al342     1.0  0.26667  0.13333  0.60454  1.0000
  Al  Al343     1.0  0.33333  0.06667  0.79849  1.0000
  Al  Al344     1.0  0.20000  0.00000  0.77246  1.0000
  Al  Al345     1.0  0.33333  0.06667  0.69773  1.0000
  Al  Al346     1.0  0.20000  0.00000  0.67171  1.0000
  Al  Al347     1.0  0.26667  0.13333  0.66415  1.0000
  Al  Al348     1.0  0.33333  0.06667  0.63812  1.0000
  O   O505      1.0  0.27210  0.06667  0.71831  1.0000
  O   O506      1.0  0.33877  0.13877  0.75189  1.0000
  O   O507      1.0  0.39456  0.12790  0.71831  1.0000
  O   O508      1.0  0.33333  0.00544  0.71831  1.0000
  O   O509      1.0  0.20000  0.06123  0.75189  1.0000
  O   O510      1.0  0.26123  0.00000  0.75189  1.0000
  O   O511      1.0  0.20544  0.13333  0.78548  1.0000
  O   O512      1.0  0.27210  0.00544  0.61755  1.0000
  O   O513      1.0  0.32790  0.19456  0.78548  1.0000
  O   O514      1.0  0.26667  0.07210  0.78548  1.0000
  O   O515      1.0  0.33333  0.12790  0.61755  1.0000
  O   O516      1.0  0.39456  0.06667  0.61755  1.0000
  O   O517      1.0  0.33877  0.00000  0.65113  1.0000
  O   O518      1.0  0.20544  0.07210  0.68472  1.0000
  O   O519      1.0  0.26123  0.06123  0.65113  1.0000
  O   O520      1.0  0.40000  0.13877  0.65113  1.0000
  O   O521      1.0  0.26667  0.19456  0.68472  1.0000
  O   O522      1.0  0.32790  0.13333  0.68472  1.0000
  Al  Al349     1.0  0.26667  0.13333  0.96641  1.0000
  Al  Al350     1.0  0.33333  0.06667  0.94039  1.0000
  Al  Al351     1.0  0.20000  0.00000  0.93283  1.0000
  Al  Al352     1.0  0.26667  0.13333  0.90681  1.0000
  Al  Al353     1.0  0.20000  0.00000  0.83207  1.0000
  Al  Al354     1.0  0.26667  0.13333  0.80605  1.0000
  Al  Al355     1.0  0.33333  0.06667  1.00000  1.0000
  Al  Al356     1.0  0.20000  0.00000  0.97398  1.0000
  Al  Al357     1.0  0.33333  0.06667  0.89924  1.0000
  Al  Al358     1.0  0.20000  0.00000  0.87322  1.0000
  Al  Al359     1.0  0.26667  0.13333  0.86566  1.0000
  Al  Al360     1.0  0.33333  0.06667  0.83963  1.0000
  O   O523      1.0  0.27210  0.06667  0.91982  1.0000
  O   O524      1.0  0.33877  0.13877  0.95340  1.0000
  O   O525      1.0  0.39456  0.12790  0.91982  1.0000
  O   O526      1.0  0.33333  0.00544  0.91982  1.0000
  O   O527      1.0  0.20000  0.06123  0.95340  1.0000
  O   O528      1.0  0.26123  0.00000  0.95340  1.0000
  O   O529      1.0  0.20544  0.13333  0.98699  1.0000
  O   O530      1.0  0.27210  0.00544  0.81906  1.0000
  O   O531      1.0  0.32790  0.19456  0.98699  1.0000
  O   O532      1.0  0.26667  0.07210  0.98699  1.0000
  O   O533      1.0  0.33333  0.12790  0.81906  1.0000
  O   O534      1.0  0.39456  0.06667  0.81906  1.0000
  O   O535      1.0  0.33877  0.00000  0.85265  1.0000
  O   O536      1.0  0.20544  0.07210  0.88623  1.0000
  O   O537      1.0  0.26123  0.06123  0.85265  1.0000
  O   O538      1.0  0.40000  0.13877  0.85265  1.0000
  O   O539      1.0  0.26667  0.19456  0.88623  1.0000
  O   O540      1.0  0.32790  0.13333  0.88623  1.0000
  Al  Al361     1.0  0.26667  0.33333  0.16037  1.0000
  Al  Al362     1.0  0.33333  0.26667  0.13434  1.0000
  Al  Al363     1.0  0.20000  0.20000  0.12678  1.0000
  Al  Al364     1.0  0.26667  0.33333  0.10076  1.0000
  Al  Al365     1.0  0.20000  0.20000  0.02602  1.0000
  Al  Al366     1.0  0.26667  0.33333  0.00000  1.0000
  Al  Al367     1.0  0.33333  0.26667  0.19395  1.0000
  Al  Al368     1.0  0.20000  0.20000  0.16793  1.0000
  Al  Al369     1.0  0.33333  0.26667  0.09319  1.0000
  Al  Al370     1.0  0.20000  0.20000  0.06717  1.0000
  Al  Al371     1.0  0.26667  0.33333  0.05961  1.0000
  Al  Al372     1.0  0.33333  0.26667  0.03359  1.0000
  O   O541      1.0  0.27210  0.26667  0.11377  1.0000
  O   O542      1.0  0.33877  0.33877  0.14735  1.0000
  O   O543      1.0  0.39456  0.32790  0.11377  1.0000
  O   O544      1.0  0.33333  0.20544  0.11377  1.0000
  O   O545      1.0  0.20000  0.26123  0.14735  1.0000
  O   O546      1.0  0.26123  0.20000  0.14735  1.0000
  O   O547      1.0  0.20544  0.33333  0.18094  1.0000
  O   O548      1.0  0.27210  0.20544  0.01301  1.0000
  O   O549      1.0  0.32790  0.39456  0.18094  1.0000
  O   O550      1.0  0.26667  0.27210  0.18094  1.0000
  O   O551      1.0  0.33333  0.32790  0.01301  1.0000
  O   O552      1.0  0.39456  0.26667  0.01301  1.0000
  O   O553      1.0  0.33877  0.20000  0.04660  1.0000
  O   O554      1.0  0.20544  0.27210  0.08018  1.0000
  O   O555      1.0  0.26123  0.26123  0.04660  1.0000
  O   O556      1.0  0.40000  0.33877  0.04660  1.0000
  O   O557      1.0  0.26667  0.39456  0.08018  1.0000
  O   O558      1.0  0.32790  0.33333  0.08018  1.0000
  Al  Al373     1.0  0.26667  0.33333  0.36188  1.0000
  Al  Al374     1.0  0.33333  0.26667  0.33585  1.0000
  Al  Al375     1.0  0.20000  0.20000  0.32829  1.0000
  Al  Al376     1.0  0.26667  0.33333  0.30227  1.0000
  Al  Al377     1.0  0.20000  0.20000  0.22754  1.0000
  Al  Al378     1.0  0.26667  0.33333  0.20151  1.0000
  Al  Al379     1.0  0.33333  0.26667  0.39546  1.0000
  Al  Al380     1.0  0.20000  0.20000  0.36944  1.0000
  Al  Al381     1.0  0.33333  0.26667  0.29471  1.0000
  Al  Al382     1.0  0.20000  0.20000  0.26868  1.0000
  Al  Al383     1.0  0.26667  0.33333  0.26112  1.0000
  Al  Al384     1.0  0.33333  0.26667  0.23510  1.0000
  O   O559      1.0  0.27210  0.26667  0.31528  1.0000
  O   O560      1.0  0.33877  0.33877  0.34887  1.0000
  O   O561      1.0  0.39456  0.32790  0.31528  1.0000
  O   O562      1.0  0.33333  0.20544  0.31528  1.0000
  O   O563      1.0  0.20000  0.26123  0.34887  1.0000
  O   O564      1.0  0.26123  0.20000  0.34887  1.0000
  O   O565      1.0  0.20544  0.33333  0.38245  1.0000
  O   O566      1.0  0.27210  0.20544  0.21452  1.0000
  O   O567      1.0  0.32790  0.39456  0.38245  1.0000
  O   O568      1.0  0.26667  0.27210  0.38245  1.0000
  O   O569      1.0  0.33333  0.32790  0.21452  1.0000
  O   O570      1.0  0.39456  0.26667  0.21452  1.0000
  O   O571      1.0  0.33877  0.20000  0.24811  1.0000
  O   O572      1.0  0.20544  0.27210  0.28169  1.0000
  O   O573      1.0  0.26123  0.26123  0.24811  1.0000
  O   O574      1.0  0.40000  0.33877  0.24811  1.0000
  O   O575      1.0  0.26667  0.39456  0.28169  1.0000
  O   O576      1.0  0.32790  0.33333  0.28169  1.0000
  Al  Al385     1.0  0.26667  0.33333  0.56339  1.0000
  Al  Al386     1.0  0.33333  0.26667  0.53737  1.0000
  Al  Al387     1.0  0.20000  0.20000  0.52980  1.0000
  Al  Al388     1.0  0.26667  0.33333  0.50378  1.0000
  Al  Al389     1.0  0.20000  0.20000  0.42905  1.0000
  Al  Al390     1.0  0.26667  0.33333  0.40302  1.0000
  Al  Al391     1.0  0.33333  0.26667  0.59698  1.0000
  Al  Al392     1.0  0.20000  0.20000  0.57095  1.0000
  Al  Al393     1.0  0.33333  0.26667  0.49622  1.0000
  Al  Al394     1.0  0.20000  0.20000  0.47020  1.0000
  Al  Al395     1.0  0.26667  0.33333  0.46263  1.0000
  Al  Al396     1.0  0.33333  0.26667  0.43661  1.0000
  O   O577      1.0  0.27210  0.26667  0.51679  1.0000
  O   O578      1.0  0.33877  0.33877  0.55038  1.0000
  O   O579      1.0  0.39456  0.32790  0.51679  1.0000
  O   O580      1.0  0.33333  0.20544  0.51679  1.0000
  O   O581      1.0  0.20000  0.26123  0.55038  1.0000
  O   O582      1.0  0.26123  0.20000  0.55038  1.0000
  O   O583      1.0  0.20544  0.33333  0.58396  1.0000
  O   O584      1.0  0.27210  0.20544  0.41604  1.0000
  O   O585      1.0  0.32790  0.39456  0.58396  1.0000
  O   O586      1.0  0.26667  0.27210  0.58396  1.0000
  O   O587      1.0  0.33333  0.32790  0.41604  1.0000
  O   O588      1.0  0.39456  0.26667  0.41604  1.0000
  O   O589      1.0  0.33877  0.20000  0.44962  1.0000
  O   O590      1.0  0.20544  0.27210  0.48321  1.0000
  O   O591      1.0  0.26123  0.26123  0.44962  1.0000
  O   O592      1.0  0.40000  0.33877  0.44962  1.0000
  O   O593      1.0  0.26667  0.39456  0.48321  1.0000
  O   O594      1.0  0.32790  0.33333  0.48321  1.0000
  Al  Al397     1.0  0.26667  0.33333  0.76490  1.0000
  Al  Al398     1.0  0.33333  0.26667  0.73888  1.0000
  Al  Al399     1.0  0.20000  0.20000  0.73132  1.0000
  Al  Al400     1.0  0.26667  0.33333  0.70529  1.0000
  Al  Al401     1.0  0.20000  0.20000  0.63056  1.0000
  Al  Al402     1.0  0.26667  0.33333  0.60454  1.0000
  Al  Al403     1.0  0.33333  0.26667  0.79849  1.0000
  Al  Al404     1.0  0.20000  0.20000  0.77246  1.0000
  Al  Al405     1.0  0.33333  0.26667  0.69773  1.0000
  Al  Al406     1.0  0.20000  0.20000  0.67171  1.0000
  Al  Al407     1.0  0.26667  0.33333  0.66415  1.0000
  Al  Al408     1.0  0.33333  0.26667  0.63812  1.0000
  O   O595      1.0  0.27210  0.26667  0.71831  1.0000
  O   O596      1.0  0.33877  0.33877  0.75189  1.0000
  O   O597      1.0  0.39456  0.32790  0.71831  1.0000
  O   O598      1.0  0.33333  0.20544  0.71831  1.0000
  O   O599      1.0  0.20000  0.26123  0.75189  1.0000
  O   O600      1.0  0.26123  0.20000  0.75189  1.0000
  O   O601      1.0  0.20544  0.33333  0.78548  1.0000
  O   O602      1.0  0.27210  0.20544  0.61755  1.0000
  O   O603      1.0  0.32790  0.39456  0.78548  1.0000
  O   O604      1.0  0.26667  0.27210  0.78548  1.0000
  O   O605      1.0  0.33333  0.32790  0.61755  1.0000
  O   O606      1.0  0.39456  0.26667  0.61755  1.0000
  O   O607      1.0  0.33877  0.20000  0.65113  1.0000
  O   O608      1.0  0.20544  0.27210  0.68472  1.0000
  O   O609      1.0  0.26123  0.26123  0.65113  1.0000
  O   O610      1.0  0.40000  0.33877  0.65113  1.0000
  O   O611      1.0  0.26667  0.39456  0.68472  1.0000
  O   O612      1.0  0.32790  0.33333  0.68472  1.0000
  Al  Al409     1.0  0.26667  0.33333  0.96641  1.0000
  Al  Al410     1.0  0.33333  0.26667  0.94039  1.0000
  Al  Al411     1.0  0.20000  0.20000  0.93283  1.0000
  Al  Al412     1.0  0.26667  0.33333  0.90681  1.0000
  Al  Al413     1.0  0.20000  0.20000  0.83207  1.0000
  Al  Al414     1.0  0.26667  0.33333  0.80605  1.0000
  Al  Al415     1.0  0.33333  0.26667  1.00000  1.0000
  Al  Al416     1.0  0.20000  0.20000  0.97398  1.0000
  Al  Al417     1.0  0.33333  0.26667  0.89924  1.0000
  Al  Al418     1.0  0.20000  0.20000  0.87322  1.0000
  Al  Al419     1.0  0.26667  0.33333  0.86566  1.0000
  Al  Al420     1.0  0.33333  0.26667  0.83963  1.0000
  O   O613      1.0  0.27210  0.26667  0.91982  1.0000
  O   O614      1.0  0.33877  0.33877  0.95340  1.0000
  O   O615      1.0  0.39456  0.32790  0.91982  1.0000
  O   O616      1.0  0.33333  0.20544  0.91982  1.0000
  O   O617      1.0  0.20000  0.26123  0.95340  1.0000
  O   O618      1.0  0.26123  0.20000  0.95340  1.0000
  O   O619      1.0  0.20544  0.33333  0.98699  1.0000
  O   O620      1.0  0.27210  0.20544  0.81906  1.0000
  O   O621      1.0  0.32790  0.39456  0.98699  1.0000
  O   O622      1.0  0.26667  0.27210  0.98699  1.0000
  O   O623      1.0  0.33333  0.32790  0.81906  1.0000
  O   O624      1.0  0.39456  0.26667  0.81906  1.0000
  O   O625      1.0  0.33877  0.20000  0.85265  1.0000
  O   O626      1.0  0.20544  0.27210  0.88623  1.0000
  O   O627      1.0  0.26123  0.26123  0.85265  1.0000
  O   O628      1.0  0.40000  0.33877  0.85265  1.0000
  O   O629      1.0  0.26667  0.39456  0.88623  1.0000
  O   O630      1.0  0.32790  0.33333  0.88623  1.0000
  Al  Al421     1.0  0.26667  0.53333  0.16037  1.0000
  Al  Al422     1.0  0.33333  0.46667  0.13434  1.0000
  Al  Al423     1.0  0.20000  0.40000  0.12678  1.0000
  Al  Al424     1.0  0.26667  0.53333  0.10076  1.0000
  Al  Al425     1.0  0.20000  0.40000  0.02602  1.0000
  Al  Al426     1.0  0.26667  0.53333  0.00000  1.0000
  Al  Al427     1.0  0.33333  0.46667  0.19395  1.0000
  Al  Al428     1.0  0.20000  0.40000  0.16793  1.0000
  Al  Al429     1.0  0.33333  0.46667  0.09319  1.0000
  Al  Al430     1.0  0.20000  0.40000  0.06717  1.0000
  Al  Al431     1.0  0.26667  0.53333  0.05961  1.0000
  Al  Al432     1.0  0.33333  0.46667  0.03359  1.0000
  O   O631      1.0  0.27210  0.46667  0.11377  1.0000
  O   O632      1.0  0.33877  0.53877  0.14735  1.0000
  O   O633      1.0  0.39456  0.52790  0.11377  1.0000
  O   O634      1.0  0.33333  0.40544  0.11377  1.0000
  O   O635      1.0  0.20000  0.46123  0.14735  1.0000
  O   O636      1.0  0.26123  0.40000  0.14735  1.0000
  O   O637      1.0  0.20544  0.53333  0.18094  1.0000
  O   O638      1.0  0.27210  0.40544  0.01301  1.0000
  O   O639      1.0  0.32790  0.59456  0.18094  1.0000
  O   O640      1.0  0.26667  0.47210  0.18094  1.0000
  O   O641      1.0  0.33333  0.52790  0.01301  1.0000
  O   O642      1.0  0.39456  0.46667  0.01301  1.0000
  O   O643      1.0  0.33877  0.40000  0.04660  1.0000
  O   O644      1.0  0.20544  0.47210  0.08018  1.0000
  O   O645      1.0  0.26123  0.46123  0.04660  1.0000
  O   O646      1.0  0.40000  0.53877  0.04660  1.0000
  O   O647      1.0  0.26667  0.59456  0.08018  1.0000
  O   O648      1.0  0.32790  0.53333  0.08018  1.0000
  Al  Al433     1.0  0.26667  0.53333  0.36188  1.0000
  Al  Al434     1.0  0.33333  0.46667  0.33585  1.0000
  Al  Al435     1.0  0.20000  0.40000  0.32829  1.0000
  Al  Al436     1.0  0.26667  0.53333  0.30227  1.0000
  Al  Al437     1.0  0.20000  0.40000  0.22754  1.0000
  Al  Al438     1.0  0.26667  0.53333  0.20151  1.0000
  Al  Al439     1.0  0.33333  0.46667  0.39546  1.0000
  Al  Al440     1.0  0.20000  0.40000  0.36944  1.0000
  Al  Al441     1.0  0.33333  0.46667  0.29471  1.0000
  Al  Al442     1.0  0.20000  0.40000  0.26868  1.0000
  Al  Al443     1.0  0.26667  0.53333  0.26112  1.0000
  Al  Al444     1.0  0.33333  0.46667  0.23510  1.0000
  O   O649      1.0  0.27210  0.46667  0.31528  1.0000
  O   O650      1.0  0.33877  0.53877  0.34887  1.0000
  O   O651      1.0  0.39456  0.52790  0.31528  1.0000
  O   O652      1.0  0.33333  0.40544  0.31528  1.0000
  O   O653      1.0  0.20000  0.46123  0.34887  1.0000
  O   O654      1.0  0.26123  0.40000  0.34887  1.0000
  O   O655      1.0  0.20544  0.53333  0.38245  1.0000
  O   O656      1.0  0.27210  0.40544  0.21452  1.0000
  O   O657      1.0  0.32790  0.59456  0.38245  1.0000
  O   O658      1.0  0.26667  0.47210  0.38245  1.0000
  O   O659      1.0  0.33333  0.52790  0.21452  1.0000
  O   O660      1.0  0.39456  0.46667  0.21452  1.0000
  O   O661      1.0  0.33877  0.40000  0.24811  1.0000
  O   O662      1.0  0.20544  0.47210  0.28169  1.0000
  O   O663      1.0  0.26123  0.46123  0.24811  1.0000
  O   O664      1.0  0.40000  0.53877  0.24811  1.0000
  O   O665      1.0  0.26667  0.59456  0.28169  1.0000
  O   O666      1.0  0.32790  0.53333  0.28169  1.0000
  Al  Al445     1.0  0.26667  0.53333  0.56339  1.0000
  Al  Al446     1.0  0.33333  0.46667  0.53737  1.0000
  Al  Al447     1.0  0.20000  0.40000  0.52980  1.0000
  Al  Al448     1.0  0.26667  0.53333  0.50378  1.0000
  Al  Al449     1.0  0.20000  0.40000  0.42905  1.0000
  Al  Al450     1.0  0.26667  0.53333  0.40302  1.0000
  Al  Al451     1.0  0.33333  0.46667  0.59698  1.0000
  Al  Al452     1.0  0.20000  0.40000  0.57095  1.0000
  Al  Al453     1.0  0.33333  0.46667  0.49622  1.0000
  Al  Al454     1.0  0.20000  0.40000  0.47020  1.0000
  Al  Al455     1.0  0.26667  0.53333  0.46263  1.0000
  Al  Al456     1.0  0.33333  0.46667  0.43661  1.0000
  O   O667      1.0  0.27210  0.46667  0.51679  1.0000
  O   O668      1.0  0.33877  0.53877  0.55038  1.0000
  O   O669      1.0  0.39456  0.52790  0.51679  1.0000
  O   O670      1.0  0.33333  0.40544  0.51679  1.0000
  O   O671      1.0  0.20000  0.46123  0.55038  1.0000
  O   O672      1.0  0.26123  0.40000  0.55038  1.0000
  O   O673      1.0  0.20544  0.53333  0.58396  1.0000
  O   O674      1.0  0.27210  0.40544  0.41604  1.0000
  O   O675      1.0  0.32790  0.59456  0.58396  1.0000
  O   O676      1.0  0.26667  0.47210  0.58396  1.0000
  O   O677      1.0  0.33333  0.52790  0.41604  1.0000
  O   O678      1.0  0.39456  0.46667  0.41604  1.0000
  O   O679      1.0  0.33877  0.40000  0.44962  1.0000
  O   O680      1.0  0.20544  0.47210  0.48321  1.0000
  O   O681      1.0  0.26123  0.46123  0.44962  1.0000
  O   O682      1.0  0.40000  0.53877  0.44962  1.0000
  O   O683      1.0  0.26667  0.59456  0.48321  1.0000
  O   O684      1.0  0.32790  0.53333  0.48321  1.0000
  Al  Al457     1.0  0.26667  0.53333  0.76490  1.0000
  Al  Al458     1.0  0.33333  0.46667  0.73888  1.0000
  Al  Al459     1.0  0.20000  0.40000  0.73132  1.0000
  Al  Al460     1.0  0.26667  0.53333  0.70529  1.0000
  Al  Al461     1.0  0.20000  0.40000  0.63056  1.0000
  Al  Al462     1.0  0.26667  0.53333  0.60454  1.0000
  Al  Al463     1.0  0.33333  0.46667  0.79849  1.0000
  Al  Al464     1.0  0.20000  0.40000  0.77246  1.0000
  Al  Al465     1.0  0.33333  0.46667  0.69773  1.0000
  Al  Al466     1.0  0.20000  0.40000  0.67171  1.0000
  Al  Al467     1.0  0.26667  0.53333  0.66415  1.0000
  Al  Al468     1.0  0.33333  0.46667  0.63812  1.0000
  O   O685      1.0  0.27210  0.46667  0.71831  1.0000
  O   O686      1.0  0.33877  0.53877  0.75189  1.0000
  O   O687      1.0  0.39456  0.52790  0.71831  1.0000
  O   O688      1.0  0.33333  0.40544  0.71831  1.0000
  O   O689      1.0  0.20000  0.46123  0.75189  1.0000
  O   O690      1.0  0.26123  0.40000  0.75189  1.0000
  O   O691      1.0  0.20544  0.53333  0.78548  1.0000
  O   O692      1.0  0.27210  0.40544  0.61755  1.0000
  O   O693      1.0  0.32790  0.59456  0.78548  1.0000
  O   O694      1.0  0.26667  0.47210  0.78548  1.0000
  O   O695      1.0  0.33333  0.52790  0.61755  1.0000
  O   O696      1.0  0.39456  0.46667  0.61755  1.0000
  O   O697      1.0  0.33877  0.40000  0.65113  1.0000
  O   O698      1.0  0.20544  0.47210  0.68472  1.0000
  O   O699      1.0  0.26123  0.46123  0.65113  1.0000
  O   O700      1.0  0.40000  0.53877  0.65113  1.0000
  O   O701      1.0  0.26667  0.59456  0.68472  1.0000
  O   O702      1.0  0.32790  0.53333  0.68472  1.0000
  Al  Al469     1.0  0.26667  0.53333  0.96641  1.0000
  Al  Al470     1.0  0.33333  0.46667  0.94039  1.0000
  Al  Al471     1.0  0.20000  0.40000  0.93283  1.0000
  Al  Al472     1.0  0.26667  0.53333  0.90681  1.0000
  Al  Al473     1.0  0.20000  0.40000  0.83207  1.0000
  Al  Al474     1.0  0.26667  0.53333  0.80605  1.0000
  Al  Al475     1.0  0.33333  0.46667  1.00000  1.0000
  Al  Al476     1.0  0.20000  0.40000  0.97398  1.0000
  Al  Al477     1.0  0.33333  0.46667  0.89924  1.0000
  Al  Al478     1.0  0.20000  0.40000  0.87322  1.0000
  Al  Al479     1.0  0.26667  0.53333  0.86566  1.0000
  Al  Al480     1.0  0.33333  0.46667  0.83963  1.0000
  O   O703      1.0  0.27210  0.46667  0.91982  1.0000
  O   O704      1.0  0.33877  0.53877  0.95340  1.0000
  O   O705      1.0  0.39456  0.52790  0.91982  1.0000
  O   O706      1.0  0.33333  0.40544  0.91982  1.0000
  O   O707      1.0  0.20000  0.46123  0.95340  1.0000
  O   O708      1.0  0.26123  0.40000  0.95340  1.0000
  O   O709      1.0  0.20544  0.53333  0.98699  1.0000
  O   O710      1.0  0.27210  0.40544  0.81906  1.0000
  O   O711      1.0  0.32790  0.59456  0.98699  1.0000
  O   O712      1.0  0.26667  0.47210  0.98699  1.0000
  O   O713      1.0  0.33333  0.52790  0.81906  1.0000
  O   O714      1.0  0.39456  0.46667  0.81906  1.0000
  O   O715      1.0  0.33877  0.40000  0.85265  1.0000
  O   O716      1.0  0.20544  0.47210  0.88623  1.0000
  O   O717      1.0  0.26123  0.46123  0.85265  1.0000
  O   O718      1.0  0.40000  0.53877  0.85265  1.0000
  O   O719      1.0  0.26667  0.59456  0.88623  1.0000
  O   O720      1.0  0.32790  0.53333  0.88623  1.0000
  Al  Al481     1.0  0.26667  0.73333  0.16037  1.0000
  Al  Al482     1.0  0.33333  0.66667  0.13434  1.0000
  Al  Al483     1.0  0.20000  0.60000  0.12678  1.0000
  Al  Al484     1.0  0.26667  0.73333  0.10076  1.0000
  Al  Al485     1.0  0.20000  0.60000  0.02602  1.0000
  Al  Al486     1.0  0.26667  0.73333  0.00000  1.0000
  Al  Al487     1.0  0.33333  0.66667  0.19395  1.0000
  Al  Al488     1.0  0.20000  0.60000  0.16793  1.0000
  Al  Al489     1.0  0.33333  0.66667  0.09319  1.0000
  Al  Al490     1.0  0.20000  0.60000  0.06717  1.0000
  Al  Al491     1.0  0.26667  0.73333  0.05961  1.0000
  Al  Al492     1.0  0.33333  0.66667  0.03359  1.0000
  O   O721      1.0  0.27210  0.66667  0.11377  1.0000
  O   O722      1.0  0.33877  0.73877  0.14735  1.0000
  O   O723      1.0  0.39456  0.72790  0.11377  1.0000
  O   O724      1.0  0.33333  0.60544  0.11377  1.0000
  O   O725      1.0  0.20000  0.66123  0.14735  1.0000
  O   O726      1.0  0.26123  0.60000  0.14735  1.0000
  O   O727      1.0  0.20544  0.73333  0.18094  1.0000
  O   O728      1.0  0.27210  0.60544  0.01301  1.0000
  O   O729      1.0  0.32790  0.79456  0.18094  1.0000
  O   O730      1.0  0.26667  0.67210  0.18094  1.0000
  O   O731      1.0  0.33333  0.72790  0.01301  1.0000
  O   O732      1.0  0.39456  0.66667  0.01301  1.0000
  O   O733      1.0  0.33877  0.60000  0.04660  1.0000
  O   O734      1.0  0.20544  0.67210  0.08018  1.0000
  O   O735      1.0  0.26123  0.66123  0.04660  1.0000
  O   O736      1.0  0.40000  0.73877  0.04660  1.0000
  O   O737      1.0  0.26667  0.79456  0.08018  1.0000
  O   O738      1.0  0.32790  0.73333  0.08018  1.0000
  Al  Al493     1.0  0.26667  0.73333  0.36188  1.0000
  Al  Al494     1.0  0.33333  0.66667  0.33585  1.0000
  Al  Al495     1.0  0.20000  0.60000  0.32829  1.0000
  Al  Al496     1.0  0.26667  0.73333  0.30227  1.0000
  Al  Al497     1.0  0.20000  0.60000  0.22754  1.0000
  Al  Al498     1.0  0.26667  0.73333  0.20151  1.0000
  Al  Al499     1.0  0.33333  0.66667  0.39546  1.0000
  Al  Al500     1.0  0.20000  0.60000  0.36944  1.0000
  Al  Al501     1.0  0.33333  0.66667  0.29471  1.0000
  Al  Al502     1.0  0.20000  0.60000  0.26868  1.0000
  Al  Al503     1.0  0.26667  0.73333  0.26112  1.0000
  Al  Al504     1.0  0.33333  0.66667  0.23510  1.0000
  O   O739      1.0  0.27210  0.66667  0.31528  1.0000
  O   O740      1.0  0.33877  0.73877  0.34887  1.0000
  O   O741      1.0  0.39456  0.72790  0.31528  1.0000
  O   O742      1.0  0.33333  0.60544  0.31528  1.0000
  O   O743      1.0  0.20000  0.66123  0.34887  1.0000
  O   O744      1.0  0.26123  0.60000  0.34887  1.0000
  O   O745      1.0  0.20544  0.73333  0.38245  1.0000
  O   O746      1.0  0.27210  0.60544  0.21452  1.0000
  O   O747      1.0  0.32790  0.79456  0.38245  1.0000
  O   O748      1.0  0.26667  0.67210  0.38245  1.0000
  O   O749      1.0  0.33333  0.72790  0.21452  1.0000
  O   O750      1.0  0.39456  0.66667  0.21452  1.0000
  O   O751      1.0  0.33877  0.60000  0.24811  1.0000
  O   O752      1.0  0.20544  0.67210  0.28169  1.0000
  O   O753      1.0  0.26123  0.66123  0.24811  1.0000
  O   O754      1.0  0.40000  0.73877  0.24811  1.0000
  O   O755      1.0  0.26667  0.79456  0.28169  1.0000
  O   O756      1.0  0.32790  0.73333  0.28169  1.0000
  Al  Al505     1.0  0.26667  0.73333  0.56339  1.0000
  Al  Al506     1.0  0.33333  0.66667  0.53737  1.0000
  Al  Al507     1.0  0.20000  0.60000  0.52980  1.0000
  Al  Al508     1.0  0.26667  0.73333  0.50378  1.0000
  Al  Al509     1.0  0.20000  0.60000  0.42905  1.0000
  Al  Al510     1.0  0.26667  0.73333  0.40302  1.0000
  Al  Al511     1.0  0.33333  0.66667  0.59698  1.0000
  Al  Al512     1.0  0.20000  0.60000  0.57095  1.0000
  Al  Al513     1.0  0.33333  0.66667  0.49622  1.0000
  Al  Al514     1.0  0.20000  0.60000  0.47020  1.0000
  Al  Al515     1.0  0.26667  0.73333  0.46263  1.0000
  Al  Al516     1.0  0.33333  0.66667  0.43661  1.0000
  O   O757      1.0  0.27210  0.66667  0.51679  1.0000
  O   O758      1.0  0.33877  0.73877  0.55038  1.0000
  O   O759      1.0  0.39456  0.72790  0.51679  1.0000
  O   O760      1.0  0.33333  0.60544  0.51679  1.0000
  O   O761      1.0  0.20000  0.66123  0.55038  1.0000
  O   O762      1.0  0.26123  0.60000  0.55038  1.0000
  O   O763      1.0  0.20544  0.73333  0.58396  1.0000
  O   O764      1.0  0.27210  0.60544  0.41604  1.0000
  O   O765      1.0  0.32790  0.79456  0.58396  1.0000
  O   O766      1.0  0.26667  0.67210  0.58396  1.0000
  O   O767      1.0  0.33333  0.72790  0.41604  1.0000
  O   O768      1.0  0.39456  0.66667  0.41604  1.0000
  O   O769      1.0  0.33877  0.60000  0.44962  1.0000
  O   O770      1.0  0.20544  0.67210  0.48321  1.0000
  O   O771      1.0  0.26123  0.66123  0.44962  1.0000
  O   O772      1.0  0.40000  0.73877  0.44962  1.0000
  O   O773      1.0  0.26667  0.79456  0.48321  1.0000
  O   O774      1.0  0.32790  0.73333  0.48321  1.0000
  Al  Al517     1.0  0.26667  0.73333  0.76490  1.0000
  Al  Al518     1.0  0.33333  0.66667  0.73888  1.0000
  Al  Al519     1.0  0.20000  0.60000  0.73132  1.0000
  Al  Al520     1.0  0.26667  0.73333  0.70529  1.0000
  Al  Al521     1.0  0.20000  0.60000  0.63056  1.0000
  Al  Al522     1.0  0.26667  0.73333  0.60454  1.0000
  Al  Al523     1.0  0.33333  0.66667  0.79849  1.0000
  Al  Al524     1.0  0.20000  0.60000  0.77246  1.0000
  Al  Al525     1.0  0.33333  0.66667  0.69773  1.0000
  Al  Al526     1.0  0.20000  0.60000  0.67171  1.0000
  Al  Al527     1.0  0.26667  0.73333  0.66415  1.0000
  Al  Al528     1.0  0.33333  0.66667  0.63812  1.0000
  O   O775      1.0  0.27210  0.66667  0.71831  1.0000
  O   O776      1.0  0.33877  0.73877  0.75189  1.0000
  O   O777      1.0  0.39456  0.72790  0.71831  1.0000
  O   O778      1.0  0.33333  0.60544  0.71831  1.0000
  O   O779      1.0  0.20000  0.66123  0.75189  1.0000
  O   O780      1.0  0.26123  0.60000  0.75189  1.0000
  O   O781      1.0  0.20544  0.73333  0.78548  1.0000
  O   O782      1.0  0.27210  0.60544  0.61755  1.0000
  O   O783      1.0  0.32790  0.79456  0.78548  1.0000
  O   O784      1.0  0.26667  0.67210  0.78548  1.0000
  O   O785      1.0  0.33333  0.72790  0.61755  1.0000
  O   O786      1.0  0.39456  0.66667  0.61755  1.0000
  O   O787      1.0  0.33877  0.60000  0.65113  1.0000
  O   O788      1.0  0.20544  0.67210  0.68472  1.0000
  O   O789      1.0  0.26123  0.66123  0.65113  1.0000
  O   O790      1.0  0.40000  0.73877  0.65113  1.0000
  O   O791      1.0  0.26667  0.79456  0.68472  1.0000
  O   O792      1.0  0.32790  0.73333  0.68472  1.0000
  Al  Al529     1.0  0.26667  0.73333  0.96641  1.0000
  Al  Al530     1.0  0.33333  0.66667  0.94039  1.0000
  Al  Al531     1.0  0.20000  0.60000  0.93283  1.0000
  Al  Al532     1.0  0.26667  0.73333  0.90681  1.0000
  Al  Al533     1.0  0.20000  0.60000  0.83207  1.0000
  Al  Al534     1.0  0.26667  0.73333  0.80605  1.0000
  Al  Al535     1.0  0.33333  0.66667  1.00000  1.0000
  Al  Al536     1.0  0.20000  0.60000  0.97398  1.0000
  Al  Al537     1.0  0.33333  0.66667  0.89924  1.0000
  Al  Al538     1.0  0.20000  0.60000  0.87322  1.0000
  Al  Al539     1.0  0.26667  0.73333  0.86566  1.0000
  Al  Al540     1.0  0.33333  0.66667  0.83963  1.0000
  O   O793      1.0  0.27210  0.66667  0.91982  1.0000
  O   O794      1.0  0.33877  0.73877  0.95340  1.0000
  O   O795      1.0  0.39456  0.72790  0.91982  1.0000
  O   O796      1.0  0.33333  0.60544  0.91982  1.0000
  O   O797      1.0  0.20000  0.66123  0.95340  1.0000
  O   O798      1.0  0.26123  0.60000  0.95340  1.0000
  O   O799      1.0  0.20544  0.73333  0.98699  1.0000
  O   O800      1.0  0.27210  0.60544  0.81906  1.0000
  O   O801      1.0  0.32790  0.79456  0.98699  1.0000
  O   O802      1.0  0.26667  0.67210  0.98699  1.0000
  O   O803      1.0  0.33333  0.72790  0.81906  1.0000
  O   O804      1.0  0.39456  0.66667  0.81906  1.0000
  O   O805      1.0  0.33877  0.60000  0.85265  1.0000
  O   O806      1.0  0.20544  0.67210  0.88623  1.0000
  O   O807      1.0  0.26123  0.66123  0.85265  1.0000
  O   O808      1.0  0.40000  0.73877  0.85265  1.0000
  O   O809      1.0  0.26667  0.79456  0.88623  1.0000
  O   O810      1.0  0.32790  0.73333  0.88623  1.0000
  Al  Al541     1.0  0.26667  0.93333  0.16037  1.0000
  Al  Al542     1.0  0.33333  0.86667  0.13434  1.0000
  Al  Al543     1.0  0.20000  0.80000  0.12678  1.0000
  Al  Al544     1.0  0.26667  0.93333  0.10076  1.0000
  Al  Al545     1.0  0.20000  0.80000  0.02602  1.0000
  Al  Al546     1.0  0.26667  0.93333  0.00000  1.0000
  Al  Al547     1.0  0.33333  0.86667  0.19395  1.0000
  Al  Al548     1.0  0.20000  0.80000  0.16793  1.0000
  Al  Al549     1.0  0.33333  0.86667  0.09319  1.0000
  Al  Al550     1.0  0.20000  0.80000  0.06717  1.0000
  Al  Al551     1.0  0.26667  0.93333  0.05961  1.0000
  Al  Al552     1.0  0.33333  0.86667  0.03359  1.0000
  O   O811      1.0  0.27210  0.86667  0.11377  1.0000
  O   O812      1.0  0.33877  0.93877  0.14735  1.0000
  O   O813      1.0  0.39456  0.92790  0.11377  1.0000
  O   O814      1.0  0.33333  0.80544  0.11377  1.0000
  O   O815      1.0  0.20000  0.86123  0.14735  1.0000
  O   O816      1.0  0.26123  0.80000  0.14735  1.0000
  O   O817      1.0  0.20544  0.93333  0.18094  1.0000
  O   O818      1.0  0.27210  0.80544  0.01301  1.0000
  O   O819      1.0  0.32790  0.99456  0.18094  1.0000
  O   O820      1.0  0.26667  0.87210  0.18094  1.0000
  O   O821      1.0  0.33333  0.92790  0.01301  1.0000
  O   O822      1.0  0.39456  0.86667  0.01301  1.0000
  O   O823      1.0  0.33877  0.80000  0.04660  1.0000
  O   O824      1.0  0.20544  0.87210  0.08018  1.0000
  O   O825      1.0  0.26123  0.86123  0.04660  1.0000
  O   O826      1.0  0.40000  0.93877  0.04660  1.0000
  O   O827      1.0  0.26667  0.99456  0.08018  1.0000
  O   O828      1.0  0.32790  0.93333  0.08018  1.0000
  Al  Al553     1.0  0.26667  0.93333  0.36188  1.0000
  Al  Al554     1.0  0.33333  0.86667  0.33585  1.0000
  Al  Al555     1.0  0.20000  0.80000  0.32829  1.0000
  Al  Al556     1.0  0.26667  0.93333  0.30227  1.0000
  Al  Al557     1.0  0.20000  0.80000  0.22754  1.0000
  Al  Al558     1.0  0.26667  0.93333  0.20151  1.0000
  Al  Al559     1.0  0.33333  0.86667  0.39546  1.0000
  Al  Al560     1.0  0.20000  0.80000  0.36944  1.0000
  Al  Al561     1.0  0.33333  0.86667  0.29471  1.0000
  Al  Al562     1.0  0.20000  0.80000  0.26868  1.0000
  Al  Al563     1.0  0.26667  0.93333  0.26112  1.0000
  Al  Al564     1.0  0.33333  0.86667  0.23510  1.0000
  O   O829      1.0  0.27210  0.86667  0.31528  1.0000
  O   O830      1.0  0.33877  0.93877  0.34887  1.0000
  O   O831      1.0  0.39456  0.92790  0.31528  1.0000
  O   O832      1.0  0.33333  0.80544  0.31528  1.0000
  O   O833      1.0  0.20000  0.86123  0.34887  1.0000
  O   O834      1.0  0.26123  0.80000  0.34887  1.0000
  O   O835      1.0  0.20544  0.93333  0.38245  1.0000
  O   O836      1.0  0.27210  0.80544  0.21452  1.0000
  O   O837      1.0  0.32790  0.99456  0.38245  1.0000
  O   O838      1.0  0.26667  0.87210  0.38245  1.0000
  O   O839      1.0  0.33333  0.92790  0.21452  1.0000
  O   O840      1.0  0.39456  0.86667  0.21452  1.0000
  O   O841      1.0  0.33877  0.80000  0.24811  1.0000
  O   O842      1.0  0.20544  0.87210  0.28169  1.0000
  O   O843      1.0  0.26123  0.86123  0.24811  1.0000
  O   O844      1.0  0.40000  0.93877  0.24811  1.0000
  O   O845      1.0  0.26667  0.99456  0.28169  1.0000
  O   O846      1.0  0.32790  0.93333  0.28169  1.0000
  Al  Al565     1.0  0.26667  0.93333  0.56339  1.0000
  Al  Al566     1.0  0.33333  0.86667  0.53737  1.0000
  Al  Al567     1.0  0.20000  0.80000  0.52980  1.0000
  Al  Al568     1.0  0.26667  0.93333  0.50378  1.0000
  Al  Al569     1.0  0.20000  0.80000  0.42905  1.0000
  Al  Al570     1.0  0.26667  0.93333  0.40302  1.0000
  Al  Al571     1.0  0.33333  0.86667  0.59698  1.0000
  Al  Al572     1.0  0.20000  0.80000  0.57095  1.0000
  Al  Al573     1.0  0.33333  0.86667  0.49622  1.0000
  Al  Al574     1.0  0.20000  0.80000  0.47020  1.0000
  Al  Al575     1.0  0.26667  0.93333  0.46263  1.0000
  Al  Al576     1.0  0.33333  0.86667  0.43661  1.0000
  O   O847      1.0  0.27210  0.86667  0.51679  1.0000
  O   O848      1.0  0.33877  0.93877  0.55038  1.0000
  O   O849      1.0  0.39456  0.92790  0.51679  1.0000
  O   O850      1.0  0.33333  0.80544  0.51679  1.0000
  O   O851      1.0  0.20000  0.86123  0.55038  1.0000
  O   O852      1.0  0.26123  0.80000  0.55038  1.0000
  O   O853      1.0  0.20544  0.93333  0.58396  1.0000
  O   O854      1.0  0.27210  0.80544  0.41604  1.0000
  O   O855      1.0  0.32790  0.99456  0.58396  1.0000
  O   O856      1.0  0.26667  0.87210  0.58396  1.0000
  O   O857      1.0  0.33333  0.92790  0.41604  1.0000
  O   O858      1.0  0.39456  0.86667  0.41604  1.0000
  O   O859      1.0  0.33877  0.80000  0.44962  1.0000
  O   O860      1.0  0.20544  0.87210  0.48321  1.0000
  O   O861      1.0  0.26123  0.86123  0.44962  1.0000
  O   O862      1.0  0.40000  0.93877  0.44962  1.0000
  O   O863      1.0  0.26667  0.99456  0.48321  1.0000
  O   O864      1.0  0.32790  0.93333  0.48321  1.0000
  Al  Al577     1.0  0.26667  0.93333  0.76490  1.0000
  Al  Al578     1.0  0.33333  0.86667  0.73888  1.0000
  Al  Al579     1.0  0.20000  0.80000  0.73132  1.0000
  Al  Al580     1.0  0.26667  0.93333  0.70529  1.0000
  Al  Al581     1.0  0.20000  0.80000  0.63056  1.0000
  Al  Al582     1.0  0.26667  0.93333  0.60454  1.0000
  Al  Al583     1.0  0.33333  0.86667  0.79849  1.0000
  Al  Al584     1.0  0.20000  0.80000  0.77246  1.0000
  Al  Al585     1.0  0.33333  0.86667  0.69773  1.0000
  Al  Al586     1.0  0.20000  0.80000  0.67171  1.0000
  Al  Al587     1.0  0.26667  0.93333  0.66415  1.0000
  Al  Al588     1.0  0.33333  0.86667  0.63812  1.0000
  O   O865      1.0  0.27210  0.86667  0.71831  1.0000
  O   O866      1.0  0.33877  0.93877  0.75189  1.0000
  O   O867      1.0  0.39456  0.92790  0.71831  1.0000
  O   O868      1.0  0.33333  0.80544  0.71831  1.0000
  O   O869      1.0  0.20000  0.86123  0.75189  1.0000
  O   O870      1.0  0.26123  0.80000  0.75189  1.0000
  O   O871      1.0  0.20544  0.93333  0.78548  1.0000
  O   O872      1.0  0.27210  0.80544  0.61755  1.0000
  O   O873      1.0  0.32790  0.99456  0.78548  1.0000
  O   O874      1.0  0.26667  0.87210  0.78548  1.0000
  O   O875      1.0  0.33333  0.92790  0.61755  1.0000
  O   O876      1.0  0.39456  0.86667  0.61755  1.0000
  O   O877      1.0  0.33877  0.80000  0.65113  1.0000
  O   O878      1.0  0.20544  0.87210  0.68472  1.0000
  O   O879      1.0  0.26123  0.86123  0.65113  1.0000
  O   O880      1.0  0.40000  0.93877  0.65113  1.0000
  O   O881      1.0  0.26667  0.99456  0.68472  1.0000
  O   O882      1.0  0.32790  0.93333  0.68472  1.0000
  Al  Al589     1.0  0.26667  0.93333  0.96641  1.0000
  Al  Al590     1.0  0.33333  0.86667  0.94039  1.0000
  Al  Al591     1.0  0.20000  0.80000  0.93283  1.0000
  Al  Al592     1.0  0.26667  0.93333  0.90681  1.0000
  Al  Al593     1.0  0.20000  0.80000  0.83207  1.0000
  Al  Al594     1.0  0.26667  0.93333  0.80605  1.0000
  Al  Al595     1.0  0.33333  0.86667  1.00000  1.0000
  Al  Al596     1.0  0.20000  0.80000  0.97398  1.0000
  Al  Al597     1.0  0.33333  0.86667  0.89924  1.0000
  Al  Al598     1.0  0.20000  0.80000  0.87322  1.0000
  Al  Al599     1.0  0.26667  0.93333  0.86566  1.0000
  Al  Al600     1.0  0.33333  0.86667  0.83963  1.0000
  O   O883      1.0  0.27210  0.86667  0.91982  1.0000
  O   O884      1.0  0.33877  0.93877  0.95340  1.0000
  O   O885      1.0  0.39456  0.92790  0.91982  1.0000
  O   O886      1.0  0.33333  0.80544  0.91982  1.0000
  O   O887      1.0  0.20000  0.86123  0.95340  1.0000
  O   O888      1.0  0.26123  0.80000  0.95340  1.0000
  O   O889      1.0  0.20544  0.93333  0.98699  1.0000
  O   O890      1.0  0.27210  0.80544  0.81906  1.0000
  O   O891      1.0  0.32790  0.99456  0.98699  1.0000
  O   O892      1.0  0.26667  0.87210  0.98699  1.0000
  O   O893      1.0  0.33333  0.92790  0.81906  1.0000
  O   O894      1.0  0.39456  0.86667  0.81906  1.0000
  O   O895      1.0  0.33877  0.80000  0.85265  1.0000
  O   O896      1.0  0.20544  0.87210  0.88623  1.0000
  O   O897      1.0  0.26123  0.86123  0.85265  1.0000
  O   O898      1.0  0.40000  0.93877  0.85265  1.0000
  O   O899      1.0  0.26667  0.99456  0.88623  1.0000
  O   O900      1.0  0.32790  0.93333  0.88623  1.0000
  Al  Al601     1.0  0.46667  0.13333  0.16037  1.0000
  Al  Al602     1.0  0.53333  0.06667  0.13434  1.0000
  Al  Al603     1.0  0.40000  0.00000  0.12678  1.0000
  Al  Al604     1.0  0.46667  0.13333  0.10076  1.0000
  Al  Al605     1.0  0.40000  0.00000  0.02602  1.0000
  Al  Al606     1.0  0.46667  0.13333  0.00000  1.0000
  Al  Al607     1.0  0.53333  0.06667  0.19395  1.0000
  Al  Al608     1.0  0.40000  0.00000  0.16793  1.0000
  Al  Al609     1.0  0.53333  0.06667  0.09319  1.0000
  Al  Al610     1.0  0.40000  0.00000  0.06717  1.0000
  Al  Al611     1.0  0.46667  0.13333  0.05961  1.0000
  Al  Al612     1.0  0.53333  0.06667  0.03359  1.0000
  O   O901      1.0  0.47210  0.06667  0.11377  1.0000
  O   O902      1.0  0.53877  0.13877  0.14735  1.0000
  O   O903      1.0  0.59456  0.12790  0.11377  1.0000
  O   O904      1.0  0.53333  0.00544  0.11377  1.0000
  O   O905      1.0  0.40000  0.06123  0.14735  1.0000
  O   O906      1.0  0.46123  0.00000  0.14735  1.0000
  O   O907      1.0  0.40544  0.13333  0.18094  1.0000
  O   O908      1.0  0.47210  0.00544  0.01301  1.0000
  O   O909      1.0  0.52790  0.19456  0.18094  1.0000
  O   O910      1.0  0.46667  0.07210  0.18094  1.0000
  O   O911      1.0  0.53333  0.12790  0.01301  1.0000
  O   O912      1.0  0.59456  0.06667  0.01301  1.0000
  O   O913      1.0  0.53877  0.00000  0.04660  1.0000
  O   O914      1.0  0.40544  0.07210  0.08018  1.0000
  O   O915      1.0  0.46123  0.06123  0.04660  1.0000
  O   O916      1.0  0.60000  0.13877  0.04660  1.0000
  O   O917      1.0  0.46667  0.19456  0.08018  1.0000
  O   O918      1.0  0.52790  0.13333  0.08018  1.0000
  Al  Al613     1.0  0.46667  0.13333  0.36188  1.0000
  Al  Al614     1.0  0.53333  0.06667  0.33585  1.0000
  Al  Al615     1.0  0.40000  0.00000  0.32829  1.0000
  Al  Al616     1.0  0.46667  0.13333  0.30227  1.0000
  Al  Al617     1.0  0.40000  0.00000  0.22754  1.0000
  Al  Al618     1.0  0.46667  0.13333  0.20151  1.0000
  Al  Al619     1.0  0.53333  0.06667  0.39546  1.0000
  Al  Al620     1.0  0.40000  0.00000  0.36944  1.0000
  Al  Al621     1.0  0.53333  0.06667  0.29471  1.0000
  Al  Al622     1.0  0.40000  0.00000  0.26868  1.0000
  Al  Al623     1.0  0.46667  0.13333  0.26112  1.0000
  Al  Al624     1.0  0.53333  0.06667  0.23510  1.0000
  O   O919      1.0  0.47210  0.06667  0.31528  1.0000
  O   O920      1.0  0.53877  0.13877  0.34887  1.0000
  O   O921      1.0  0.59456  0.12790  0.31528  1.0000
  O   O922      1.0  0.53333  0.00544  0.31528  1.0000
  O   O923      1.0  0.40000  0.06123  0.34887  1.0000
  O   O924      1.0  0.46123  0.00000  0.34887  1.0000
  O   O925      1.0  0.40544  0.13333  0.38245  1.0000
  O   O926      1.0  0.47210  0.00544  0.21452  1.0000
  O   O927      1.0  0.52790  0.19456  0.38245  1.0000
  O   O928      1.0  0.46667  0.07210  0.38245  1.0000
  O   O929      1.0  0.53333  0.12790  0.21452  1.0000
  O   O930      1.0  0.59456  0.06667  0.21452  1.0000
  O   O931      1.0  0.53877  0.00000  0.24811  1.0000
  O   O932      1.0  0.40544  0.07210  0.28169  1.0000
  O   O933      1.0  0.46123  0.06123  0.24811  1.0000
  O   O934      1.0  0.60000  0.13877  0.24811  1.0000
  O   O935      1.0  0.46667  0.19456  0.28169  1.0000
  O   O936      1.0  0.52790  0.13333  0.28169  1.0000
  Al  Al625     1.0  0.46667  0.13333  0.56339  1.0000
  Al  Al626     1.0  0.53333  0.06667  0.53737  1.0000
  Al  Al627     1.0  0.40000  0.00000  0.52980  1.0000
  Al  Al628     1.0  0.46667  0.13333  0.50378  1.0000
  Al  Al629     1.0  0.40000  0.00000  0.42905  1.0000
  Al  Al630     1.0  0.46667  0.13333  0.40302  1.0000
  Al  Al631     1.0  0.53333  0.06667  0.59698  1.0000
  Al  Al632     1.0  0.40000  0.00000  0.57095  1.0000
  Al  Al633     1.0  0.53333  0.06667  0.49622  1.0000
  Al  Al634     1.0  0.40000  0.00000  0.47020  1.0000
  Al  Al635     1.0  0.46667  0.13333  0.46263  1.0000
  Al  Al636     1.0  0.53333  0.06667  0.43661  1.0000
  O   O937      1.0  0.47210  0.06667  0.51679  1.0000
  O   O938      1.0  0.53877  0.13877  0.55038  1.0000
  O   O939      1.0  0.59456  0.12790  0.51679  1.0000
  O   O940      1.0  0.53333  0.00544  0.51679  1.0000
  O   O941      1.0  0.40000  0.06123  0.55038  1.0000
  O   O942      1.0  0.46123  0.00000  0.55038  1.0000
  O   O943      1.0  0.40544  0.13333  0.58396  1.0000
  O   O944      1.0  0.47210  0.00544  0.41604  1.0000
  O   O945      1.0  0.52790  0.19456  0.58396  1.0000
  O   O946      1.0  0.46667  0.07210  0.58396  1.0000
  O   O947      1.0  0.53333  0.12790  0.41604  1.0000
  O   O948      1.0  0.59456  0.06667  0.41604  1.0000
  O   O949      1.0  0.53877  0.00000  0.44962  1.0000
  O   O950      1.0  0.40544  0.07210  0.48321  1.0000
  O   O951      1.0  0.46123  0.06123  0.44962  1.0000
  O   O952      1.0  0.60000  0.13877  0.44962  1.0000
  O   O953      1.0  0.46667  0.19456  0.48321  1.0000
  O   O954      1.0  0.52790  0.13333  0.48321  1.0000
  Al  Al637     1.0  0.46667  0.13333  0.76490  1.0000
  Al  Al638     1.0  0.53333  0.06667  0.73888  1.0000
  Al  Al639     1.0  0.40000  0.00000  0.73132  1.0000
  Al  Al640     1.0  0.46667  0.13333  0.70529  1.0000
  Al  Al641     1.0  0.40000  0.00000  0.63056  1.0000
  Al  Al642     1.0  0.46667  0.13333  0.60454  1.0000
  Al  Al643     1.0  0.53333  0.06667  0.79849  1.0000
  Al  Al644     1.0  0.40000  0.00000  0.77246  1.0000
  Al  Al645     1.0  0.53333  0.06667  0.69773  1.0000
  Al  Al646     1.0  0.40000  0.00000  0.67171  1.0000
  Al  Al647     1.0  0.46667  0.13333  0.66415  1.0000
  Al  Al648     1.0  0.53333  0.06667  0.63812  1.0000
  O   O955      1.0  0.47210  0.06667  0.71831  1.0000
  O   O956      1.0  0.53877  0.13877  0.75189  1.0000
  O   O957      1.0  0.59456  0.12790  0.71831  1.0000
  O   O958      1.0  0.53333  0.00544  0.71831  1.0000
  O   O959      1.0  0.40000  0.06123  0.75189  1.0000
  O   O960      1.0  0.46123  0.00000  0.75189  1.0000
  O   O961      1.0  0.40544  0.13333  0.78548  1.0000
  O   O962      1.0  0.47210  0.00544  0.61755  1.0000
  O   O963      1.0  0.52790  0.19456  0.78548  1.0000
  O   O964      1.0  0.46667  0.07210  0.78548  1.0000
  O   O965      1.0  0.53333  0.12790  0.61755  1.0000
  O   O966      1.0  0.59456  0.06667  0.61755  1.0000
  O   O967      1.0  0.53877  0.00000  0.65113  1.0000
  O   O968      1.0  0.40544  0.07210  0.68472  1.0000
  O   O969      1.0  0.46123  0.06123  0.65113  1.0000
  O   O970      1.0  0.60000  0.13877  0.65113  1.0000
  O   O971      1.0  0.46667  0.19456  0.68472  1.0000
  O   O972      1.0  0.52790  0.13333  0.68472  1.0000
  Al  Al649     1.0  0.46667  0.13333  0.96641  1.0000
  Al  Al650     1.0  0.53333  0.06667  0.94039  1.0000
  Al  Al651     1.0  0.40000  0.00000  0.93283  1.0000
  Al  Al652     1.0  0.46667  0.13333  0.90681  1.0000
  Al  Al653     1.0  0.40000  0.00000  0.83207  1.0000
  Al  Al654     1.0  0.46667  0.13333  0.80605  1.0000
  Al  Al655     1.0  0.53333  0.06667  1.00000  1.0000
  Al  Al656     1.0  0.40000  0.00000  0.97398  1.0000
  Al  Al657     1.0  0.53333  0.06667  0.89924  1.0000
  Al  Al658     1.0  0.40000  0.00000  0.87322  1.0000
  Al  Al659     1.0  0.46667  0.13333  0.86566  1.0000
  Al  Al660     1.0  0.53333  0.06667  0.83963  1.0000
  O   O973      1.0  0.47210  0.06667  0.91982  1.0000
  O   O974      1.0  0.53877  0.13877  0.95340  1.0000
  O   O975      1.0  0.59456  0.12790  0.91982  1.0000
  O   O976      1.0  0.53333  0.00544  0.91982  1.0000
  O   O977      1.0  0.40000  0.06123  0.95340  1.0000
  O   O978      1.0  0.46123  0.00000  0.95340  1.0000
  O   O979      1.0  0.40544  0.13333  0.98699  1.0000
  O   O980      1.0  0.47210  0.00544  0.81906  1.0000
  O   O981      1.0  0.52790  0.19456  0.98699  1.0000
  O   O982      1.0  0.46667  0.07210  0.98699  1.0000
  O   O983      1.0  0.53333  0.12790  0.81906  1.0000
  O   O984      1.0  0.59456  0.06667  0.81906  1.0000
  O   O985      1.0  0.53877  0.00000  0.85265  1.0000
  O   O986      1.0  0.40544  0.07210  0.88623  1.0000
  O   O987      1.0  0.46123  0.06123  0.85265  1.0000
  O   O988      1.0  0.60000  0.13877  0.85265  1.0000
  O   O989      1.0  0.46667  0.19456  0.88623  1.0000
  O   O990      1.0  0.52790  0.13333  0.88623  1.0000
  Al  Al661     1.0  0.46667  0.33333  0.16037  1.0000
  Al  Al662     1.0  0.53333  0.26667  0.13434  1.0000
  Al  Al663     1.0  0.40000  0.20000  0.12678  1.0000
  Al  Al664     1.0  0.46667  0.33333  0.10076  1.0000
  Al  Al665     1.0  0.40000  0.20000  0.02602  1.0000
  Al  Al666     1.0  0.46667  0.33333  0.00000  1.0000
  Al  Al667     1.0  0.53333  0.26667  0.19395  1.0000
  Al  Al668     1.0  0.40000  0.20000  0.16793  1.0000
  Al  Al669     1.0  0.53333  0.26667  0.09319  1.0000
  Al  Al670     1.0  0.40000  0.20000  0.06717  1.0000
  Al  Al671     1.0  0.46667  0.33333  0.05961  1.0000
  Al  Al672     1.0  0.53333  0.26667  0.03359  1.0000
  O   O991      1.0  0.47210  0.26667  0.11377  1.0000
  O   O992      1.0  0.53877  0.33877  0.14735  1.0000
  O   O993      1.0  0.59456  0.32790  0.11377  1.0000
  O   O994      1.0  0.53333  0.20544  0.11377  1.0000
  O   O995      1.0  0.40000  0.26123  0.14735  1.0000
  O   O996      1.0  0.46123  0.20000  0.14735  1.0000
  O   O997      1.0  0.40544  0.33333  0.18094  1.0000
  O   O998      1.0  0.47210  0.20544  0.01301  1.0000
  O   O999      1.0  0.52790  0.39456  0.18094  1.0000
  O   O1000     1.0  0.46667  0.27210  0.18094  1.0000
  O   O1001     1.0  0.53333  0.32790  0.01301  1.0000
  O   O1002     1.0  0.59456  0.26667  0.01301  1.0000
  O   O1003     1.0  0.53877  0.20000  0.04660  1.0000
  O   O1004     1.0  0.40544  0.27210  0.08018  1.0000
  O   O1005     1.0  0.46123  0.26123  0.04660  1.0000
  O   O1006     1.0  0.60000  0.33877  0.04660  1.0000
  O   O1007     1.0  0.46667  0.39456  0.08018  1.0000
  O   O1008     1.0  0.52790  0.33333  0.08018  1.0000
  Al  Al673     1.0  0.46667  0.33333  0.36188  1.0000
  Al  Al674     1.0  0.53333  0.26667  0.33585  1.0000
  Al  Al675     1.0  0.40000  0.20000  0.32829  1.0000
  Al  Al676     1.0  0.46667  0.33333  0.30227  1.0000
  Al  Al677     1.0  0.40000  0.20000  0.22754  1.0000
  Al  Al678     1.0  0.46667  0.33333  0.20151  1.0000
  Al  Al679     1.0  0.53333  0.26667  0.39546  1.0000
  Al  Al680     1.0  0.40000  0.20000  0.36944  1.0000
  Al  Al681     1.0  0.53333  0.26667  0.29471  1.0000
  Al  Al682     1.0  0.40000  0.20000  0.26868  1.0000
  Al  Al683     1.0  0.46667  0.33333  0.26112  1.0000
  Al  Al684     1.0  0.53333  0.26667  0.23510  1.0000
  O   O1009     1.0  0.47210  0.26667  0.31528  1.0000
  O   O1010     1.0  0.53877  0.33877  0.34887  1.0000
  O   O1011     1.0  0.59456  0.32790  0.31528  1.0000
  O   O1012     1.0  0.53333  0.20544  0.31528  1.0000
  O   O1013     1.0  0.40000  0.26123  0.34887  1.0000
  O   O1014     1.0  0.46123  0.20000  0.34887  1.0000
  O   O1015     1.0  0.40544  0.33333  0.38245  1.0000
  O   O1016     1.0  0.47210  0.20544  0.21452  1.0000
  O   O1017     1.0  0.52790  0.39456  0.38245  1.0000
  O   O1018     1.0  0.46667  0.27210  0.38245  1.0000
  O   O1019     1.0  0.53333  0.32790  0.21452  1.0000
  O   O1020     1.0  0.59456  0.26667  0.21452  1.0000
  O   O1021     1.0  0.53877  0.20000  0.24811  1.0000
  O   O1022     1.0  0.40544  0.27210  0.28169  1.0000
  O   O1023     1.0  0.46123  0.26123  0.24811  1.0000
  O   O1024     1.0  0.60000  0.33877  0.24811  1.0000
  O   O1025     1.0  0.46667  0.39456  0.28169  1.0000
  O   O1026     1.0  0.52790  0.33333  0.28169  1.0000
  Al  Al685     1.0  0.46667  0.33333  0.56339  1.0000
  Al  Al686     1.0  0.53333  0.26667  0.53737  1.0000
  Al  Al687     1.0  0.40000  0.20000  0.52980  1.0000
  Al  Al688     1.0  0.46667  0.33333  0.50378  1.0000
  Al  Al689     1.0  0.40000  0.20000  0.42905  1.0000
  Al  Al690     1.0  0.46667  0.33333  0.40302  1.0000
  Al  Al691     1.0  0.53333  0.26667  0.59698  1.0000
  Al  Al692     1.0  0.40000  0.20000  0.57095  1.0000
  Al  Al693     1.0  0.53333  0.26667  0.49622  1.0000
  Al  Al694     1.0  0.40000  0.20000  0.47020  1.0000
  Al  Al695     1.0  0.46667  0.33333  0.46263  1.0000
  Al  Al696     1.0  0.53333  0.26667  0.43661  1.0000
  O   O1027     1.0  0.47210  0.26667  0.51679  1.0000
  O   O1028     1.0  0.53877  0.33877  0.55038  1.0000
  O   O1029     1.0  0.59456  0.32790  0.51679  1.0000
  O   O1030     1.0  0.53333  0.20544  0.51679  1.0000
  O   O1031     1.0  0.40000  0.26123  0.55038  1.0000
  O   O1032     1.0  0.46123  0.20000  0.55038  1.0000
  O   O1033     1.0  0.40544  0.33333  0.58396  1.0000
  O   O1034     1.0  0.47210  0.20544  0.41604  1.0000
  O   O1035     1.0  0.52790  0.39456  0.58396  1.0000
  O   O1036     1.0  0.46667  0.27210  0.58396  1.0000
  O   O1037     1.0  0.53333  0.32790  0.41604  1.0000
  O   O1038     1.0  0.59456  0.26667  0.41604  1.0000
  O   O1039     1.0  0.53877  0.20000  0.44962  1.0000
  O   O1040     1.0  0.40544  0.27210  0.48321  1.0000
  O   O1041     1.0  0.46123  0.26123  0.44962  1.0000
  O   O1042     1.0  0.60000  0.33877  0.44962  1.0000
  O   O1043     1.0  0.46667  0.39456  0.48321  1.0000
  O   O1044     1.0  0.52790  0.33333  0.48321  1.0000
  Al  Al697     1.0  0.46667  0.33333  0.76490  1.0000
  Al  Al698     1.0  0.53333  0.26667  0.73888  1.0000
  Al  Al699     1.0  0.40000  0.20000  0.73132  1.0000
  Al  Al700     1.0  0.46667  0.33333  0.70529  1.0000
  Al  Al701     1.0  0.40000  0.20000  0.63056  1.0000
  Al  Al702     1.0  0.46667  0.33333  0.60454  1.0000
  Al  Al703     1.0  0.53333  0.26667  0.79849  1.0000
  Al  Al704     1.0  0.40000  0.20000  0.77246  1.0000
  Al  Al705     1.0  0.53333  0.26667  0.69773  1.0000
  Al  Al706     1.0  0.40000  0.20000  0.67171  1.0000
  Al  Al707     1.0  0.46667  0.33333  0.66415  1.0000
  Al  Al708     1.0  0.53333  0.26667  0.63812  1.0000
  O   O1045     1.0  0.47210  0.26667  0.71831  1.0000
  O   O1046     1.0  0.53877  0.33877  0.75189  1.0000
  O   O1047     1.0  0.59456  0.32790  0.71831  1.0000
  O   O1048     1.0  0.53333  0.20544  0.71831  1.0000
  O   O1049     1.0  0.40000  0.26123  0.75189  1.0000
  O   O1050     1.0  0.46123  0.20000  0.75189  1.0000
  O   O1051     1.0  0.40544  0.33333  0.78548  1.0000
  O   O1052     1.0  0.47210  0.20544  0.61755  1.0000
  O   O1053     1.0  0.52790  0.39456  0.78548  1.0000
  O   O1054     1.0  0.46667  0.27210  0.78548  1.0000
  O   O1055     1.0  0.53333  0.32790  0.61755  1.0000
  O   O1056     1.0  0.59456  0.26667  0.61755  1.0000
  O   O1057     1.0  0.53877  0.20000  0.65113  1.0000
  O   O1058     1.0  0.40544  0.27210  0.68472  1.0000
  O   O1059     1.0  0.46123  0.26123  0.65113  1.0000
  O   O1060     1.0  0.60000  0.33877  0.65113  1.0000
  O   O1061     1.0  0.46667  0.39456  0.68472  1.0000
  O   O1062     1.0  0.52790  0.33333  0.68472  1.0000
  Al  Al709     1.0  0.46667  0.33333  0.96641  1.0000
  Al  Al710     1.0  0.53333  0.26667  0.94039  1.0000
  Al  Al711     1.0  0.40000  0.20000  0.93283  1.0000
  Al  Al712     1.0  0.46667  0.33333  0.90681  1.0000
  Al  Al713     1.0  0.40000  0.20000  0.83207  1.0000
  Al  Al714     1.0  0.46667  0.33333  0.80605  1.0000
  Al  Al715     1.0  0.53333  0.26667  1.00000  1.0000
  Al  Al716     1.0  0.40000  0.20000  0.97398  1.0000
  Al  Al717     1.0  0.53333  0.26667  0.89924  1.0000
  Al  Al718     1.0  0.40000  0.20000  0.87322  1.0000
  Al  Al719     1.0  0.46667  0.33333  0.86566  1.0000
  Al  Al720     1.0  0.53333  0.26667  0.83963  1.0000
  O   O1063     1.0  0.47210  0.26667  0.91982  1.0000
  O   O1064     1.0  0.53877  0.33877  0.95340  1.0000
  O   O1065     1.0  0.59456  0.32790  0.91982  1.0000
  O   O1066     1.0  0.53333  0.20544  0.91982  1.0000
  O   O1067     1.0  0.40000  0.26123  0.95340  1.0000
  O   O1068     1.0  0.46123  0.20000  0.95340  1.0000
  O   O1069     1.0  0.40544  0.33333  0.98699  1.0000
  O   O1070     1.0  0.47210  0.20544  0.81906  1.0000
  O   O1071     1.0  0.52790  0.39456  0.98699  1.0000
  O   O1072     1.0  0.46667  0.27210  0.98699  1.0000
  O   O1073     1.0  0.53333  0.32790  0.81906  1.0000
  O   O1074     1.0  0.59456  0.26667  0.81906  1.0000
  O   O1075     1.0  0.53877  0.20000  0.85265  1.0000
  O   O1076     1.0  0.40544  0.27210  0.88623  1.0000
  O   O1077     1.0  0.46123  0.26123  0.85265  1.0000
  O   O1078     1.0  0.60000  0.33877  0.85265  1.0000
  O   O1079     1.0  0.46667  0.39456  0.88623  1.0000
  O   O1080     1.0  0.52790  0.33333  0.88623  1.0000
  Al  Al721     1.0  0.46667  0.53333  0.16037  1.0000
  Al  Al722     1.0  0.53333  0.46667  0.13434  1.0000
  Al  Al723     1.0  0.40000  0.40000  0.12678  1.0000
  Al  Al724     1.0  0.46667  0.53333  0.10076  1.0000
  Al  Al725     1.0  0.40000  0.40000  0.02602  1.0000
  Al  Al726     1.0  0.46667  0.53333  0.00000  1.0000
  Al  Al727     1.0  0.53333  0.46667  0.19395  1.0000
  Al  Al728     1.0  0.40000  0.40000  0.16793  1.0000
  Al  Al729     1.0  0.53333  0.46667  0.09319  1.0000
  Al  Al730     1.0  0.40000  0.40000  0.06717  1.0000
  Al  Al731     1.0  0.46667  0.53333  0.05961  1.0000
  Al  Al732     1.0  0.53333  0.46667  0.03359  1.0000
  O   O1081     1.0  0.47210  0.46667  0.11377  1.0000
  O   O1082     1.0  0.53877  0.53877  0.14735  1.0000
  O   O1083     1.0  0.59456  0.52790  0.11377  1.0000
  O   O1084     1.0  0.53333  0.40544  0.11377  1.0000
  O   O1085     1.0  0.40000  0.46123  0.14735  1.0000
  O   O1086     1.0  0.46123  0.40000  0.14735  1.0000
  O   O1087     1.0  0.40544  0.53333  0.18094  1.0000
  O   O1088     1.0  0.47210  0.40544  0.01301  1.0000
  O   O1089     1.0  0.52790  0.59456  0.18094  1.0000
  O   O1090     1.0  0.46667  0.47210  0.18094  1.0000
  O   O1091     1.0  0.53333  0.52790  0.01301  1.0000
  O   O1092     1.0  0.59456  0.46667  0.01301  1.0000
  O   O1093     1.0  0.53877  0.40000  0.04660  1.0000
  O   O1094     1.0  0.40544  0.47210  0.08018  1.0000
  O   O1095     1.0  0.46123  0.46123  0.04660  1.0000
  O   O1096     1.0  0.60000  0.53877  0.04660  1.0000
  O   O1097     1.0  0.46667  0.59456  0.08018  1.0000
  O   O1098     1.0  0.52790  0.53333  0.08018  1.0000
  Al  Al733     1.0  0.46667  0.53333  0.36188  1.0000
  Al  Al734     1.0  0.53333  0.46667  0.33585  1.0000
  Al  Al735     1.0  0.40000  0.40000  0.32829  1.0000
  Al  Al736     1.0  0.46667  0.53333  0.30227  1.0000
  Al  Al737     1.0  0.40000  0.40000  0.22754  1.0000
  Al  Al738     1.0  0.46667  0.53333  0.20151  1.0000
  Al  Al739     1.0  0.53333  0.46667  0.39546  1.0000
  Al  Al740     1.0  0.40000  0.40000  0.36944  1.0000
  Al  Al741     1.0  0.53333  0.46667  0.29471  1.0000
  Al  Al742     1.0  0.40000  0.40000  0.26868  1.0000
  Al  Al743     1.0  0.46667  0.53333  0.26112  1.0000
  Al  Al744     1.0  0.53333  0.46667  0.23510  1.0000
  O   O1099     1.0  0.47210  0.46667  0.31528  1.0000
  O   O1100     1.0  0.53877  0.53877  0.34887  1.0000
  O   O1101     1.0  0.59456  0.52790  0.31528  1.0000
  O   O1102     1.0  0.53333  0.40544  0.31528  1.0000
  O   O1103     1.0  0.40000  0.46123  0.34887  1.0000
  O   O1104     1.0  0.46123  0.40000  0.34887  1.0000
  O   O1105     1.0  0.40544  0.53333  0.38245  1.0000
  O   O1106     1.0  0.47210  0.40544  0.21452  1.0000
  O   O1107     1.0  0.52790  0.59456  0.38245  1.0000
  O   O1108     1.0  0.46667  0.47210  0.38245  1.0000
  O   O1109     1.0  0.53333  0.52790  0.21452  1.0000
  O   O1110     1.0  0.59456  0.46667  0.21452  1.0000
  O   O1111     1.0  0.53877  0.40000  0.24811  1.0000
  O   O1112     1.0  0.40544  0.47210  0.28169  1.0000
  O   O1113     1.0  0.46123  0.46123  0.24811  1.0000
  O   O1114     1.0  0.60000  0.53877  0.24811  1.0000
  O   O1115     1.0  0.46667  0.59456  0.28169  1.0000
  O   O1116     1.0  0.52790  0.53333  0.28169  1.0000
  Al  Al745     1.0  0.46667  0.53333  0.56339  1.0000
  Al  Al746     1.0  0.53333  0.46667  0.53737  1.0000
  Al  Al747     1.0  0.40000  0.40000  0.52980  1.0000
  Al  Al748     1.0  0.46667  0.53333  0.50378  1.0000
  Al  Al749     1.0  0.40000  0.40000  0.42905  1.0000
  Al  Al750     1.0  0.46667  0.53333  0.40302  1.0000
  Al  Al751     1.0  0.53333  0.46667  0.59698  1.0000
  Al  Al752     1.0  0.40000  0.40000  0.57095  1.0000
  Al  Al753     1.0  0.53333  0.46667  0.49622  1.0000
  Al  Al754     1.0  0.40000  0.40000  0.47020  1.0000
  Al  Al755     1.0  0.46667  0.53333  0.46263  1.0000
  Al  Al756     1.0  0.53333  0.46667  0.43661  1.0000
  O   O1117     1.0  0.47210  0.46667  0.51679  1.0000
  O   O1118     1.0  0.53877  0.53877  0.55038  1.0000
  O   O1119     1.0  0.59456  0.52790  0.51679  1.0000
  O   O1120     1.0  0.53333  0.40544  0.51679  1.0000
  O   O1121     1.0  0.40000  0.46123  0.55038  1.0000
  O   O1122     1.0  0.46123  0.40000  0.55038  1.0000
  O   O1123     1.0  0.40544  0.53333  0.58396  1.0000
  O   O1124     1.0  0.47210  0.40544  0.41604  1.0000
  O   O1125     1.0  0.52790  0.59456  0.58396  1.0000
  O   O1126     1.0  0.46667  0.47210  0.58396  1.0000
  O   O1127     1.0  0.53333  0.52790  0.41604  1.0000
  O   O1128     1.0  0.59456  0.46667  0.41604  1.0000
  O   O1129     1.0  0.53877  0.40000  0.44962  1.0000
  O   O1130     1.0  0.40544  0.47210  0.48321  1.0000
  O   O1131     1.0  0.46123  0.46123  0.44962  1.0000
  O   O1132     1.0  0.60000  0.53877  0.44962  1.0000
  O   O1133     1.0  0.46667  0.59456  0.48321  1.0000
  O   O1134     1.0  0.52790  0.53333  0.48321  1.0000
  Al  Al757     1.0  0.46667  0.53333  0.76490  1.0000
  Al  Al758     1.0  0.53333  0.46667  0.73888  1.0000
  Al  Al759     1.0  0.40000  0.40000  0.73132  1.0000
  Al  Al760     1.0  0.46667  0.53333  0.70529  1.0000
  Al  Al761     1.0  0.40000  0.40000  0.63056  1.0000
  Al  Al762     1.0  0.46667  0.53333  0.60454  1.0000
  Al  Al763     1.0  0.53333  0.46667  0.79849  1.0000
  Al  Al764     1.0  0.40000  0.40000  0.77246  1.0000
  Al  Al765     1.0  0.53333  0.46667  0.69773  1.0000
  Al  Al766     1.0  0.40000  0.40000  0.67171  1.0000
  Al  Al767     1.0  0.46667  0.53333  0.66415  1.0000
  Al  Al768     1.0  0.53333  0.46667  0.63812  1.0000
  O   O1135     1.0  0.47210  0.46667  0.71831  1.0000
  O   O1136     1.0  0.53877  0.53877  0.75189  1.0000
  O   O1137     1.0  0.59456  0.52790  0.71831  1.0000
  O   O1138     1.0  0.53333  0.40544  0.71831  1.0000
  O   O1139     1.0  0.40000  0.46123  0.75189  1.0000
  O   O1140     1.0  0.46123  0.40000  0.75189  1.0000
  O   O1141     1.0  0.40544  0.53333  0.78548  1.0000
  O   O1142     1.0  0.47210  0.40544  0.61755  1.0000
  O   O1143     1.0  0.52790  0.59456  0.78548  1.0000
  O   O1144     1.0  0.46667  0.47210  0.78548  1.0000
  O   O1145     1.0  0.53333  0.52790  0.61755  1.0000
  O   O1146     1.0  0.59456  0.46667  0.61755  1.0000
  O   O1147     1.0  0.53877  0.40000  0.65113  1.0000
  O   O1148     1.0  0.40544  0.47210  0.68472  1.0000
  O   O1149     1.0  0.46123  0.46123  0.65113  1.0000
  O   O1150     1.0  0.60000  0.53877  0.65113  1.0000
  O   O1151     1.0  0.46667  0.59456  0.68472  1.0000
  O   O1152     1.0  0.52790  0.53333  0.68472  1.0000
  Al  Al769     1.0  0.46667  0.53333  0.96641  1.0000
  Al  Al770     1.0  0.53333  0.46667  0.94039  1.0000
  Al  Al771     1.0  0.40000  0.40000  0.93283  1.0000
  Al  Al772     1.0  0.46667  0.53333  0.90681  1.0000
  Al  Al773     1.0  0.40000  0.40000  0.83207  1.0000
  Al  Al774     1.0  0.46667  0.53333  0.80605  1.0000
  Al  Al775     1.0  0.53333  0.46667  1.00000  1.0000
  Al  Al776     1.0  0.40000  0.40000  0.97398  1.0000
  Al  Al777     1.0  0.53333  0.46667  0.89924  1.0000
  Al  Al778     1.0  0.40000  0.40000  0.87322  1.0000
  Al  Al779     1.0  0.46667  0.53333  0.86566  1.0000
  Al  Al780     1.0  0.53333  0.46667  0.83963  1.0000
  O   O1153     1.0  0.47210  0.46667  0.91982  1.0000
  O   O1154     1.0  0.53877  0.53877  0.95340  1.0000
  O   O1155     1.0  0.59456  0.52790  0.91982  1.0000
  O   O1156     1.0  0.53333  0.40544  0.91982  1.0000
  O   O1157     1.0  0.40000  0.46123  0.95340  1.0000
  O   O1158     1.0  0.46123  0.40000  0.95340  1.0000
  O   O1159     1.0  0.40544  0.53333  0.98699  1.0000
  O   O1160     1.0  0.47210  0.40544  0.81906  1.0000
  O   O1161     1.0  0.52790  0.59456  0.98699  1.0000
  O   O1162     1.0  0.46667  0.47210  0.98699  1.0000
  O   O1163     1.0  0.53333  0.52790  0.81906  1.0000
  O   O1164     1.0  0.59456  0.46667  0.81906  1.0000
  O   O1165     1.0  0.53877  0.40000  0.85265  1.0000
  O   O1166     1.0  0.40544  0.47210  0.88623  1.0000
  O   O1167     1.0  0.46123  0.46123  0.85265  1.0000
  O   O1168     1.0  0.60000  0.53877  0.85265  1.0000
  O   O1169     1.0  0.46667  0.59456  0.88623  1.0000
  O   O1170     1.0  0.52790  0.53333  0.88623  1.0000
  Al  Al781     1.0  0.46667  0.73333  0.16037  1.0000
  Al  Al782     1.0  0.53333  0.66667  0.13434  1.0000
  Al  Al783     1.0  0.40000  0.60000  0.12678  1.0000
  Al  Al784     1.0  0.46667  0.73333  0.10076  1.0000
  Al  Al785     1.0  0.40000  0.60000  0.02602  1.0000
  Al  Al786     1.0  0.46667  0.73333  0.00000  1.0000
  Al  Al787     1.0  0.53333  0.66667  0.19395  1.0000
  Al  Al788     1.0  0.40000  0.60000  0.16793  1.0000
  Al  Al789     1.0  0.53333  0.66667  0.09319  1.0000
  Al  Al790     1.0  0.40000  0.60000  0.06717  1.0000
  Al  Al791     1.0  0.46667  0.73333  0.05961  1.0000
  Al  Al792     1.0  0.53333  0.66667  0.03359  1.0000
  O   O1171     1.0  0.47210  0.66667  0.11377  1.0000
  O   O1172     1.0  0.53877  0.73877  0.14735  1.0000
  O   O1173     1.0  0.59456  0.72790  0.11377  1.0000
  O   O1174     1.0  0.53333  0.60544  0.11377  1.0000
  O   O1175     1.0  0.40000  0.66123  0.14735  1.0000
  O   O1176     1.0  0.46123  0.60000  0.14735  1.0000
  O   O1177     1.0  0.40544  0.73333  0.18094  1.0000
  O   O1178     1.0  0.47210  0.60544  0.01301  1.0000
  O   O1179     1.0  0.52790  0.79456  0.18094  1.0000
  O   O1180     1.0  0.46667  0.67210  0.18094  1.0000
  O   O1181     1.0  0.53333  0.72790  0.01301  1.0000
  O   O1182     1.0  0.59456  0.66667  0.01301  1.0000
  O   O1183     1.0  0.53877  0.60000  0.04660  1.0000
  O   O1184     1.0  0.40544  0.67210  0.08018  1.0000
  O   O1185     1.0  0.46123  0.66123  0.04660  1.0000
  O   O1186     1.0  0.60000  0.73877  0.04660  1.0000
  O   O1187     1.0  0.46667  0.79456  0.08018  1.0000
  O   O1188     1.0  0.52790  0.73333  0.08018  1.0000
  Al  Al793     1.0  0.46667  0.73333  0.36188  1.0000
  Al  Al794     1.0  0.53333  0.66667  0.33585  1.0000
  Al  Al795     1.0  0.40000  0.60000  0.32829  1.0000
  Al  Al796     1.0  0.46667  0.73333  0.30227  1.0000
  Al  Al797     1.0  0.40000  0.60000  0.22754  1.0000
  Al  Al798     1.0  0.46667  0.73333  0.20151  1.0000
  Al  Al799     1.0  0.53333  0.66667  0.39546  1.0000
  Al  Al800     1.0  0.40000  0.60000  0.36944  1.0000
  Al  Al801     1.0  0.53333  0.66667  0.29471  1.0000
  Al  Al802     1.0  0.40000  0.60000  0.26868  1.0000
  Al  Al803     1.0  0.46667  0.73333  0.26112  1.0000
  Al  Al804     1.0  0.53333  0.66667  0.23510  1.0000
  O   O1189     1.0  0.47210  0.66667  0.31528  1.0000
  O   O1190     1.0  0.53877  0.73877  0.34887  1.0000
  O   O1191     1.0  0.59456  0.72790  0.31528  1.0000
  O   O1192     1.0  0.53333  0.60544  0.31528  1.0000
  O   O1193     1.0  0.40000  0.66123  0.34887  1.0000
  O   O1194     1.0  0.46123  0.60000  0.34887  1.0000
  O   O1195     1.0  0.40544  0.73333  0.38245  1.0000
  O   O1196     1.0  0.47210  0.60544  0.21452  1.0000
  O   O1197     1.0  0.52790  0.79456  0.38245  1.0000
  O   O1198     1.0  0.46667  0.67210  0.38245  1.0000
  O   O1199     1.0  0.53333  0.72790  0.21452  1.0000
  O   O1200     1.0  0.59456  0.66667  0.21452  1.0000
  O   O1201     1.0  0.53877  0.60000  0.24811  1.0000
  O   O1202     1.0  0.40544  0.67210  0.28169  1.0000
  O   O1203     1.0  0.46123  0.66123  0.24811  1.0000
  O   O1204     1.0  0.60000  0.73877  0.24811  1.0000
  O   O1205     1.0  0.46667  0.79456  0.28169  1.0000
  O   O1206     1.0  0.52790  0.73333  0.28169  1.0000
  Al  Al805     1.0  0.46667  0.73333  0.56339  1.0000
  Al  Al806     1.0  0.53333  0.66667  0.53737  1.0000
  Al  Al807     1.0  0.40000  0.60000  0.52980  1.0000
  Al  Al808     1.0  0.46667  0.73333  0.50378  1.0000
  Al  Al809     1.0  0.40000  0.60000  0.42905  1.0000
  Al  Al810     1.0  0.46667  0.73333  0.40302  1.0000
  Al  Al811     1.0  0.53333  0.66667  0.59698  1.0000
  Al  Al812     1.0  0.40000  0.60000  0.57095  1.0000
  Al  Al813     1.0  0.53333  0.66667  0.49622  1.0000
  Al  Al814     1.0  0.40000  0.60000  0.47020  1.0000
  Al  Al815     1.0  0.46667  0.73333  0.46263  1.0000
  Al  Al816     1.0  0.53333  0.66667  0.43661  1.0000
  O   O1207     1.0  0.47210  0.66667  0.51679  1.0000
  O   O1208     1.0  0.53877  0.73877  0.55038  1.0000
  O   O1209     1.0  0.59456  0.72790  0.51679  1.0000
  O   O1210     1.0  0.53333  0.60544  0.51679  1.0000
  O   O1211     1.0  0.40000  0.66123  0.55038  1.0000
  O   O1212     1.0  0.46123  0.60000  0.55038  1.0000
  O   O1213     1.0  0.40544  0.73333  0.58396  1.0000
  O   O1214     1.0  0.47210  0.60544  0.41604  1.0000
  O   O1215     1.0  0.52790  0.79456  0.58396  1.0000
  O   O1216     1.0  0.46667  0.67210  0.58396  1.0000
  O   O1217     1.0  0.53333  0.72790  0.41604  1.0000
  O   O1218     1.0  0.59456  0.66667  0.41604  1.0000
  O   O1219     1.0  0.53877  0.60000  0.44962  1.0000
  O   O1220     1.0  0.40544  0.67210  0.48321  1.0000
  O   O1221     1.0  0.46123  0.66123  0.44962  1.0000
  O   O1222     1.0  0.60000  0.73877  0.44962  1.0000
  O   O1223     1.0  0.46667  0.79456  0.48321  1.0000
  O   O1224     1.0  0.52790  0.73333  0.48321  1.0000
  Al  Al817     1.0  0.46667  0.73333  0.76490  1.0000
  Al  Al818     1.0  0.53333  0.66667  0.73888  1.0000
  Al  Al819     1.0  0.40000  0.60000  0.73132  1.0000
  Al  Al820     1.0  0.46667  0.73333  0.70529  1.0000
  Al  Al821     1.0  0.40000  0.60000  0.63056  1.0000
  Al  Al822     1.0  0.46667  0.73333  0.60454  1.0000
  Al  Al823     1.0  0.53333  0.66667  0.79849  1.0000
  Al  Al824     1.0  0.40000  0.60000  0.77246  1.0000
  Al  Al825     1.0  0.53333  0.66667  0.69773  1.0000
  Al  Al826     1.0  0.40000  0.60000  0.67171  1.0000
  Al  Al827     1.0  0.46667  0.73333  0.66415  1.0000
  Al  Al828     1.0  0.53333  0.66667  0.63812  1.0000
  O   O1225     1.0  0.47210  0.66667  0.71831  1.0000
  O   O1226     1.0  0.53877  0.73877  0.75189  1.0000
  O   O1227     1.0  0.59456  0.72790  0.71831  1.0000
  O   O1228     1.0  0.53333  0.60544  0.71831  1.0000
  O   O1229     1.0  0.40000  0.66123  0.75189  1.0000
  O   O1230     1.0  0.46123  0.60000  0.75189  1.0000
  O   O1231     1.0  0.40544  0.73333  0.78548  1.0000
  O   O1232     1.0  0.47210  0.60544  0.61755  1.0000
  O   O1233     1.0  0.52790  0.79456  0.78548  1.0000
  O   O1234     1.0  0.46667  0.67210  0.78548  1.0000
  O   O1235     1.0  0.53333  0.72790  0.61755  1.0000
  O   O1236     1.0  0.59456  0.66667  0.61755  1.0000
  O   O1237     1.0  0.53877  0.60000  0.65113  1.0000
  O   O1238     1.0  0.40544  0.67210  0.68472  1.0000
  O   O1239     1.0  0.46123  0.66123  0.65113  1.0000
  O   O1240     1.0  0.60000  0.73877  0.65113  1.0000
  O   O1241     1.0  0.46667  0.79456  0.68472  1.0000
  O   O1242     1.0  0.52790  0.73333  0.68472  1.0000
  Al  Al829     1.0  0.46667  0.73333  0.96641  1.0000
  Al  Al830     1.0  0.53333  0.66667  0.94039  1.0000
  Al  Al831     1.0  0.40000  0.60000  0.93283  1.0000
  Al  Al832     1.0  0.46667  0.73333  0.90681  1.0000
  Al  Al833     1.0  0.40000  0.60000  0.83207  1.0000
  Al  Al834     1.0  0.46667  0.73333  0.80605  1.0000
  Al  Al835     1.0  0.53333  0.66667  1.00000  1.0000
  Al  Al836     1.0  0.40000  0.60000  0.97398  1.0000
  Al  Al837     1.0  0.53333  0.66667  0.89924  1.0000
  Al  Al838     1.0  0.40000  0.60000  0.87322  1.0000
  Al  Al839     1.0  0.46667  0.73333  0.86566  1.0000
  Al  Al840     1.0  0.53333  0.66667  0.83963  1.0000
  O   O1243     1.0  0.47210  0.66667  0.91982  1.0000
  O   O1244     1.0  0.53877  0.73877  0.95340  1.0000
  O   O1245     1.0  0.59456  0.72790  0.91982  1.0000
  O   O1246     1.0  0.53333  0.60544  0.91982  1.0000
  O   O1247     1.0  0.40000  0.66123  0.95340  1.0000
  O   O1248     1.0  0.46123  0.60000  0.95340  1.0000
  O   O1249     1.0  0.40544  0.73333  0.98699  1.0000
  O   O1250     1.0  0.47210  0.60544  0.81906  1.0000
  O   O1251     1.0  0.52790  0.79456  0.98699  1.0000
  O   O1252     1.0  0.46667  0.67210  0.98699  1.0000
  O   O1253     1.0  0.53333  0.72790  0.81906  1.0000
  O   O1254     1.0  0.59456  0.66667  0.81906  1.0000
  O   O1255     1.0  0.53877  0.60000  0.85265  1.0000
  O   O1256     1.0  0.40544  0.67210  0.88623  1.0000
  O   O1257     1.0  0.46123  0.66123  0.85265  1.0000
  O   O1258     1.0  0.60000  0.73877  0.85265  1.0000
  O   O1259     1.0  0.46667  0.79456  0.88623  1.0000
  O   O1260     1.0  0.52790  0.73333  0.88623  1.0000
  Al  Al841     1.0  0.46667  0.93333  0.16037  1.0000
  Al  Al842     1.0  0.53333  0.86667  0.13434  1.0000
  Al  Al843     1.0  0.40000  0.80000  0.12678  1.0000
  Al  Al844     1.0  0.46667  0.93333  0.10076  1.0000
  Al  Al845     1.0  0.40000  0.80000  0.02602  1.0000
  Al  Al846     1.0  0.46667  0.93333  0.00000  1.0000
  Al  Al847     1.0  0.53333  0.86667  0.19395  1.0000
  Al  Al848     1.0  0.40000  0.80000  0.16793  1.0000
  Al  Al849     1.0  0.53333  0.86667  0.09319  1.0000
  Al  Al850     1.0  0.40000  0.80000  0.06717  1.0000
  Al  Al851     1.0  0.46667  0.93333  0.05961  1.0000
  Al  Al852     1.0  0.53333  0.86667  0.03359  1.0000
  O   O1261     1.0  0.47210  0.86667  0.11377  1.0000
  O   O1262     1.0  0.53877  0.93877  0.14735  1.0000
  O   O1263     1.0  0.59456  0.92790  0.11377  1.0000
  O   O1264     1.0  0.53333  0.80544  0.11377  1.0000
  O   O1265     1.0  0.40000  0.86123  0.14735  1.0000
  O   O1266     1.0  0.46123  0.80000  0.14735  1.0000
  O   O1267     1.0  0.40544  0.93333  0.18094  1.0000
  O   O1268     1.0  0.47210  0.80544  0.01301  1.0000
  O   O1269     1.0  0.52790  0.99456  0.18094  1.0000
  O   O1270     1.0  0.46667  0.87210  0.18094  1.0000
  O   O1271     1.0  0.53333  0.92790  0.01301  1.0000
  O   O1272     1.0  0.59456  0.86667  0.01301  1.0000
  O   O1273     1.0  0.53877  0.80000  0.04660  1.0000
  O   O1274     1.0  0.40544  0.87210  0.08018  1.0000
  O   O1275     1.0  0.46123  0.86123  0.04660  1.0000
  O   O1276     1.0  0.60000  0.93877  0.04660  1.0000
  O   O1277     1.0  0.46667  0.99456  0.08018  1.0000
  O   O1278     1.0  0.52790  0.93333  0.08018  1.0000
  Al  Al853     1.0  0.46667  0.93333  0.36188  1.0000
  Al  Al854     1.0  0.53333  0.86667  0.33585  1.0000
  Al  Al855     1.0  0.40000  0.80000  0.32829  1.0000
  Al  Al856     1.0  0.46667  0.93333  0.30227  1.0000
  Al  Al857     1.0  0.40000  0.80000  0.22754  1.0000
  Al  Al858     1.0  0.46667  0.93333  0.20151  1.0000
  Al  Al859     1.0  0.53333  0.86667  0.39546  1.0000
  Al  Al860     1.0  0.40000  0.80000  0.36944  1.0000
  Al  Al861     1.0  0.53333  0.86667  0.29471  1.0000
  Al  Al862     1.0  0.40000  0.80000  0.26868  1.0000
  Al  Al863     1.0  0.46667  0.93333  0.26112  1.0000
  Al  Al864     1.0  0.53333  0.86667  0.23510  1.0000
  O   O1279     1.0  0.47210  0.86667  0.31528  1.0000
  O   O1280     1.0  0.53877  0.93877  0.34887  1.0000
  O   O1281     1.0  0.59456  0.92790  0.31528  1.0000
  O   O1282     1.0  0.53333  0.80544  0.31528  1.0000
  O   O1283     1.0  0.40000  0.86123  0.34887  1.0000
  O   O1284     1.0  0.46123  0.80000  0.34887  1.0000
  O   O1285     1.0  0.40544  0.93333  0.38245  1.0000
  O   O1286     1.0  0.47210  0.80544  0.21452  1.0000
  O   O1287     1.0  0.52790  0.99456  0.38245  1.0000
  O   O1288     1.0  0.46667  0.87210  0.38245  1.0000
  O   O1289     1.0  0.53333  0.92790  0.21452  1.0000
  O   O1290     1.0  0.59456  0.86667  0.21452  1.0000
  O   O1291     1.0  0.53877  0.80000  0.24811  1.0000
  O   O1292     1.0  0.40544  0.87210  0.28169  1.0000
  O   O1293     1.0  0.46123  0.86123  0.24811  1.0000
  O   O1294     1.0  0.60000  0.93877  0.24811  1.0000
  O   O1295     1.0  0.46667  0.99456  0.28169  1.0000
  O   O1296     1.0  0.52790  0.93333  0.28169  1.0000
  Al  Al865     1.0  0.46667  0.93333  0.56339  1.0000
  Al  Al866     1.0  0.53333  0.86667  0.53737  1.0000
  Al  Al867     1.0  0.40000  0.80000  0.52980  1.0000
  Al  Al868     1.0  0.46667  0.93333  0.50378  1.0000
  Al  Al869     1.0  0.40000  0.80000  0.42905  1.0000
  Al  Al870     1.0  0.46667  0.93333  0.40302  1.0000
  Al  Al871     1.0  0.53333  0.86667  0.59698  1.0000
  Al  Al872     1.0  0.40000  0.80000  0.57095  1.0000
  Al  Al873     1.0  0.53333  0.86667  0.49622  1.0000
  Al  Al874     1.0  0.40000  0.80000  0.47020  1.0000
  Al  Al875     1.0  0.46667  0.93333  0.46263  1.0000
  Al  Al876     1.0  0.53333  0.86667  0.43661  1.0000
  O   O1297     1.0  0.47210  0.86667  0.51679  1.0000
  O   O1298     1.0  0.53877  0.93877  0.55038  1.0000
  O   O1299     1.0  0.59456  0.92790  0.51679  1.0000
  O   O1300     1.0  0.53333  0.80544  0.51679  1.0000
  O   O1301     1.0  0.40000  0.86123  0.55038  1.0000
  O   O1302     1.0  0.46123  0.80000  0.55038  1.0000
  O   O1303     1.0  0.40544  0.93333  0.58396  1.0000
  O   O1304     1.0  0.47210  0.80544  0.41604  1.0000
  O   O1305     1.0  0.52790  0.99456  0.58396  1.0000
  O   O1306     1.0  0.46667  0.87210  0.58396  1.0000
  O   O1307     1.0  0.53333  0.92790  0.41604  1.0000
  O   O1308     1.0  0.59456  0.86667  0.41604  1.0000
  O   O1309     1.0  0.53877  0.80000  0.44962  1.0000
  O   O1310     1.0  0.40544  0.87210  0.48321  1.0000
  O   O1311     1.0  0.46123  0.86123  0.44962  1.0000
  O   O1312     1.0  0.60000  0.93877  0.44962  1.0000
  O   O1313     1.0  0.46667  0.99456  0.48321  1.0000
  O   O1314     1.0  0.52790  0.93333  0.48321  1.0000
  Al  Al877     1.0  0.46667  0.93333  0.76490  1.0000
  Al  Al878     1.0  0.53333  0.86667  0.73888  1.0000
  Al  Al879     1.0  0.40000  0.80000  0.73132  1.0000
  Al  Al880     1.0  0.46667  0.93333  0.70529  1.0000
  Al  Al881     1.0  0.40000  0.80000  0.63056  1.0000
  Al  Al882     1.0  0.46667  0.93333  0.60454  1.0000
  Al  Al883     1.0  0.53333  0.86667  0.79849  1.0000
  Al  Al884     1.0  0.40000  0.80000  0.77246  1.0000
  Al  Al885     1.0  0.53333  0.86667  0.69773  1.0000
  Al  Al886     1.0  0.40000  0.80000  0.67171  1.0000
  Al  Al887     1.0  0.46667  0.93333  0.66415  1.0000
  Al  Al888     1.0  0.53333  0.86667  0.63812  1.0000
  O   O1315     1.0  0.47210  0.86667  0.71831  1.0000
  O   O1316     1.0  0.53877  0.93877  0.75189  1.0000
  O   O1317     1.0  0.59456  0.92790  0.71831  1.0000
  O   O1318     1.0  0.53333  0.80544  0.71831  1.0000
  O   O1319     1.0  0.40000  0.86123  0.75189  1.0000
  O   O1320     1.0  0.46123  0.80000  0.75189  1.0000
  O   O1321     1.0  0.40544  0.93333  0.78548  1.0000
  O   O1322     1.0  0.47210  0.80544  0.61755  1.0000
  O   O1323     1.0  0.52790  0.99456  0.78548  1.0000
  O   O1324     1.0  0.46667  0.87210  0.78548  1.0000
  O   O1325     1.0  0.53333  0.92790  0.61755  1.0000
  O   O1326     1.0  0.59456  0.86667  0.61755  1.0000
  O   O1327     1.0  0.53877  0.80000  0.65113  1.0000
  O   O1328     1.0  0.40544  0.87210  0.68472  1.0000
  O   O1329     1.0  0.46123  0.86123  0.65113  1.0000
  O   O1330     1.0  0.60000  0.93877  0.65113  1.0000
  O   O1331     1.0  0.46667  0.99456  0.68472  1.0000
  O   O1332     1.0  0.52790  0.93333  0.68472  1.0000
  Al  Al889     1.0  0.46667  0.93333  0.96641  1.0000
  Al  Al890     1.0  0.53333  0.86667  0.94039  1.0000
  Al  Al891     1.0  0.40000  0.80000  0.93283  1.0000
  Al  Al892     1.0  0.46667  0.93333  0.90681  1.0000
  Al  Al893     1.0  0.40000  0.80000  0.83207  1.0000
  Al  Al894     1.0  0.46667  0.93333  0.80605  1.0000
  Al  Al895     1.0  0.53333  0.86667  1.00000  1.0000
  Al  Al896     1.0  0.40000  0.80000  0.97398  1.0000
  Al  Al897     1.0  0.53333  0.86667  0.89924  1.0000
  Al  Al898     1.0  0.40000  0.80000  0.87322  1.0000
  Al  Al899     1.0  0.46667  0.93333  0.86566  1.0000
  Al  Al900     1.0  0.53333  0.86667  0.83963  1.0000
  O   O1333     1.0  0.47210  0.86667  0.91982  1.0000
  O   O1334     1.0  0.53877  0.93877  0.95340  1.0000
  O   O1335     1.0  0.59456  0.92790  0.91982  1.0000
  O   O1336     1.0  0.53333  0.80544  0.91982  1.0000
  O   O1337     1.0  0.40000  0.86123  0.95340  1.0000
  O   O1338     1.0  0.46123  0.80000  0.95340  1.0000
  O   O1339     1.0  0.40544  0.93333  0.98699  1.0000
  O   O1340     1.0  0.47210  0.80544  0.81906  1.0000
  O   O1341     1.0  0.52790  0.99456  0.98699  1.0000
  O   O1342     1.0  0.46667  0.87210  0.98699  1.0000
  O   O1343     1.0  0.53333  0.92790  0.81906  1.0000
  O   O1344     1.0  0.59456  0.86667  0.81906  1.0000
  O   O1345     1.0  0.53877  0.80000  0.85265  1.0000
  O   O1346     1.0  0.40544  0.87210  0.88623  1.0000
  O   O1347     1.0  0.46123  0.86123  0.85265  1.0000
  O   O1348     1.0  0.60000  0.93877  0.85265  1.0000
  O   O1349     1.0  0.46667  0.99456  0.88623  1.0000
  O   O1350     1.0  0.52790  0.93333  0.88623  1.0000
  Al  Al901     1.0  0.66667  0.13333  0.16037  1.0000
  Al  Al902     1.0  0.73333  0.06667  0.13434  1.0000
  Al  Al903     1.0  0.60000  0.00000  0.12678  1.0000
  Al  Al904     1.0  0.66667  0.13333  0.10076  1.0000
  Al  Al905     1.0  0.60000  0.00000  0.02602  1.0000
  Al  Al906     1.0  0.66667  0.13333  0.00000  1.0000
  Al  Al907     1.0  0.73333  0.06667  0.19395  1.0000
  Al  Al908     1.0  0.60000  0.00000  0.16793  1.0000
  Al  Al909     1.0  0.73333  0.06667  0.09319  1.0000
  Al  Al910     1.0  0.60000  0.00000  0.06717  1.0000
  Al  Al911     1.0  0.66667  0.13333  0.05961  1.0000
  Al  Al912     1.0  0.73333  0.06667  0.03359  1.0000
  O   O1351     1.0  0.67210  0.06667  0.11377  1.0000
  O   O1352     1.0  0.73877  0.13877  0.14735  1.0000
  O   O1353     1.0  0.79456  0.12790  0.11377  1.0000
  O   O1354     1.0  0.73333  0.00544  0.11377  1.0000
  O   O1355     1.0  0.60000  0.06123  0.14735  1.0000
  O   O1356     1.0  0.66123  0.00000  0.14735  1.0000
  O   O1357     1.0  0.60544  0.13333  0.18094  1.0000
  O   O1358     1.0  0.67210  0.00544  0.01301  1.0000
  O   O1359     1.0  0.72790  0.19456  0.18094  1.0000
  O   O1360     1.0  0.66667  0.07210  0.18094  1.0000
  O   O1361     1.0  0.73333  0.12790  0.01301  1.0000
  O   O1362     1.0  0.79456  0.06667  0.01301  1.0000
  O   O1363     1.0  0.73877  0.00000  0.04660  1.0000
  O   O1364     1.0  0.60544  0.07210  0.08018  1.0000
  O   O1365     1.0  0.66123  0.06123  0.04660  1.0000
  O   O1366     1.0  0.80000  0.13877  0.04660  1.0000
  O   O1367     1.0  0.66667  0.19456  0.08018  1.0000
  O   O1368     1.0  0.72790  0.13333  0.08018  1.0000
  Al  Al913     1.0  0.66667  0.13333  0.36188  1.0000
  Al  Al914     1.0  0.73333  0.06667  0.33585  1.0000
  Al  Al915     1.0  0.60000  0.00000  0.32829  1.0000
  Al  Al916     1.0  0.66667  0.13333  0.30227  1.0000
  Al  Al917     1.0  0.60000  0.00000  0.22754  1.0000
  Al  Al918     1.0  0.66667  0.13333  0.20151  1.0000
  Al  Al919     1.0  0.73333  0.06667  0.39546  1.0000
  Al  Al920     1.0  0.60000  0.00000  0.36944  1.0000
  Al  Al921     1.0  0.73333  0.06667  0.29471  1.0000
  Al  Al922     1.0  0.60000  0.00000  0.26868  1.0000
  Al  Al923     1.0  0.66667  0.13333  0.26112  1.0000
  Al  Al924     1.0  0.73333  0.06667  0.23510  1.0000
  O   O1369     1.0  0.67210  0.06667  0.31528  1.0000
  O   O1370     1.0  0.73877  0.13877  0.34887  1.0000
  O   O1371     1.0  0.79456  0.12790  0.31528  1.0000
  O   O1372     1.0  0.73333  0.00544  0.31528  1.0000
  O   O1373     1.0  0.60000  0.06123  0.34887  1.0000
  O   O1374     1.0  0.66123  0.00000  0.34887  1.0000
  O   O1375     1.0  0.60544  0.13333  0.38245  1.0000
  O   O1376     1.0  0.67210  0.00544  0.21452  1.0000
  O   O1377     1.0  0.72790  0.19456  0.38245  1.0000
  O   O1378     1.0  0.66667  0.07210  0.38245  1.0000
  O   O1379     1.0  0.73333  0.12790  0.21452  1.0000
  O   O1380     1.0  0.79456  0.06667  0.21452  1.0000
  O   O1381     1.0  0.73877  0.00000  0.24811  1.0000
  O   O1382     1.0  0.60544  0.07210  0.28169  1.0000
  O   O1383     1.0  0.66123  0.06123  0.24811  1.0000
  O   O1384     1.0  0.80000  0.13877  0.24811  1.0000
  O   O1385     1.0  0.66667  0.19456  0.28169  1.0000
  O   O1386     1.0  0.72790  0.13333  0.28169  1.0000
  Al  Al925     1.0  0.66667  0.13333  0.56339  1.0000
  Al  Al926     1.0  0.73333  0.06667  0.53737  1.0000
  Al  Al927     1.0  0.60000  0.00000  0.52980  1.0000
  Al  Al928     1.0  0.66667  0.13333  0.50378  1.0000
  Al  Al929     1.0  0.60000  0.00000  0.42905  1.0000
  Al  Al930     1.0  0.66667  0.13333  0.40302  1.0000
  Al  Al931     1.0  0.73333  0.06667  0.59698  1.0000
  Al  Al932     1.0  0.60000  0.00000  0.57095  1.0000
  Al  Al933     1.0  0.73333  0.06667  0.49622  1.0000
  Al  Al934     1.0  0.60000  0.00000  0.47020  1.0000
  Al  Al935     1.0  0.66667  0.13333  0.46263  1.0000
  Al  Al936     1.0  0.73333  0.06667  0.43661  1.0000
  O   O1387     1.0  0.67210  0.06667  0.51679  1.0000
  O   O1388     1.0  0.73877  0.13877  0.55038  1.0000
  O   O1389     1.0  0.79456  0.12790  0.51679  1.0000
  O   O1390     1.0  0.73333  0.00544  0.51679  1.0000
  O   O1391     1.0  0.60000  0.06123  0.55038  1.0000
  O   O1392     1.0  0.66123  0.00000  0.55038  1.0000
  O   O1393     1.0  0.60544  0.13333  0.58396  1.0000
  O   O1394     1.0  0.67210  0.00544  0.41604  1.0000
  O   O1395     1.0  0.72790  0.19456  0.58396  1.0000
  O   O1396     1.0  0.66667  0.07210  0.58396  1.0000
  O   O1397     1.0  0.73333  0.12790  0.41604  1.0000
  O   O1398     1.0  0.79456  0.06667  0.41604  1.0000
  O   O1399     1.0  0.73877  0.00000  0.44962  1.0000
  O   O1400     1.0  0.60544  0.07210  0.48321  1.0000
  O   O1401     1.0  0.66123  0.06123  0.44962  1.0000
  O   O1402     1.0  0.80000  0.13877  0.44962  1.0000
  O   O1403     1.0  0.66667  0.19456  0.48321  1.0000
  O   O1404     1.0  0.72790  0.13333  0.48321  1.0000
  Al  Al937     1.0  0.66667  0.13333  0.76490  1.0000
  Al  Al938     1.0  0.73333  0.06667  0.73888  1.0000
  Al  Al939     1.0  0.60000  0.00000  0.73132  1.0000
  Al  Al940     1.0  0.66667  0.13333  0.70529  1.0000
  Al  Al941     1.0  0.60000  0.00000  0.63056  1.0000
  Al  Al942     1.0  0.66667  0.13333  0.60454  1.0000
  Al  Al943     1.0  0.73333  0.06667  0.79849  1.0000
  Al  Al944     1.0  0.60000  0.00000  0.77246  1.0000
  Al  Al945     1.0  0.73333  0.06667  0.69773  1.0000
  Al  Al946     1.0  0.60000  0.00000  0.67171  1.0000
  Al  Al947     1.0  0.66667  0.13333  0.66415  1.0000
  Al  Al948     1.0  0.73333  0.06667  0.63812  1.0000
  O   O1405     1.0  0.67210  0.06667  0.71831  1.0000
  O   O1406     1.0  0.73877  0.13877  0.75189  1.0000
  O   O1407     1.0  0.79456  0.12790  0.71831  1.0000
  O   O1408     1.0  0.73333  0.00544  0.71831  1.0000
  O   O1409     1.0  0.60000  0.06123  0.75189  1.0000
  O   O1410     1.0  0.66123  0.00000  0.75189  1.0000
  O   O1411     1.0  0.60544  0.13333  0.78548  1.0000
  O   O1412     1.0  0.67210  0.00544  0.61755  1.0000
  O   O1413     1.0  0.72790  0.19456  0.78548  1.0000
  O   O1414     1.0  0.66667  0.07210  0.78548  1.0000
  O   O1415     1.0  0.73333  0.12790  0.61755  1.0000
  O   O1416     1.0  0.79456  0.06667  0.61755  1.0000
  O   O1417     1.0  0.73877  0.00000  0.65113  1.0000
  O   O1418     1.0  0.60544  0.07210  0.68472  1.0000
  O   O1419     1.0  0.66123  0.06123  0.65113  1.0000
  O   O1420     1.0  0.80000  0.13877  0.65113  1.0000
  O   O1421     1.0  0.66667  0.19456  0.68472  1.0000
  O   O1422     1.0  0.72790  0.13333  0.68472  1.0000
  Al  Al949     1.0  0.66667  0.13333  0.96641  1.0000
  Al  Al950     1.0  0.73333  0.06667  0.94039  1.0000
  Al  Al951     1.0  0.60000  0.00000  0.93283  1.0000
  Al  Al952     1.0  0.66667  0.13333  0.90681  1.0000
  Al  Al953     1.0  0.60000  0.00000  0.83207  1.0000
  Al  Al954     1.0  0.66667  0.13333  0.80605  1.0000
  Al  Al955     1.0  0.73333  0.06667  1.00000  1.0000
  Al  Al956     1.0  0.60000  0.00000  0.97398  1.0000
  Al  Al957     1.0  0.73333  0.06667  0.89924  1.0000
  Al  Al958     1.0  0.60000  0.00000  0.87322  1.0000
  Al  Al959     1.0  0.66667  0.13333  0.86566  1.0000
  Al  Al960     1.0  0.73333  0.06667  0.83963  1.0000
  O   O1423     1.0  0.67210  0.06667  0.91982  1.0000
  O   O1424     1.0  0.73877  0.13877  0.95340  1.0000
  O   O1425     1.0  0.79456  0.12790  0.91982  1.0000
  O   O1426     1.0  0.73333  0.00544  0.91982  1.0000
  O   O1427     1.0  0.60000  0.06123  0.95340  1.0000
  O   O1428     1.0  0.66123  0.00000  0.95340  1.0000
  O   O1429     1.0  0.60544  0.13333  0.98699  1.0000
  O   O1430     1.0  0.67210  0.00544  0.81906  1.0000
  O   O1431     1.0  0.72790  0.19456  0.98699  1.0000
  O   O1432     1.0  0.66667  0.07210  0.98699  1.0000
  O   O1433     1.0  0.73333  0.12790  0.81906  1.0000
  O   O1434     1.0  0.79456  0.06667  0.81906  1.0000
  O   O1435     1.0  0.73877  0.00000  0.85265  1.0000
  O   O1436     1.0  0.60544  0.07210  0.88623  1.0000
  O   O1437     1.0  0.66123  0.06123  0.85265  1.0000
  O   O1438     1.0  0.80000  0.13877  0.85265  1.0000
  O   O1439     1.0  0.66667  0.19456  0.88623  1.0000
  O   O1440     1.0  0.72790  0.13333  0.88623  1.0000
  Al  Al961     1.0  0.66667  0.33333  0.16037  1.0000
  Al  Al962     1.0  0.73333  0.26667  0.13434  1.0000
  Al  Al963     1.0  0.60000  0.20000  0.12678  1.0000
  Al  Al964     1.0  0.66667  0.33333  0.10076  1.0000
  Al  Al965     1.0  0.60000  0.20000  0.02602  1.0000
  Al  Al966     1.0  0.66667  0.33333  0.00000  1.0000
  Al  Al967     1.0  0.73333  0.26667  0.19395  1.0000
  Al  Al968     1.0  0.60000  0.20000  0.16793  1.0000
  Al  Al969     1.0  0.73333  0.26667  0.09319  1.0000
  Al  Al970     1.0  0.60000  0.20000  0.06717  1.0000
  Al  Al971     1.0  0.66667  0.33333  0.05961  1.0000
  Al  Al972     1.0  0.73333  0.26667  0.03359  1.0000
  O   O1441     1.0  0.67210  0.26667  0.11377  1.0000
  O   O1442     1.0  0.73877  0.33877  0.14735  1.0000
  O   O1443     1.0  0.79456  0.32790  0.11377  1.0000
  O   O1444     1.0  0.73333  0.20544  0.11377  1.0000
  O   O1445     1.0  0.60000  0.26123  0.14735  1.0000
  O   O1446     1.0  0.66123  0.20000  0.14735  1.0000
  O   O1447     1.0  0.60544  0.33333  0.18094  1.0000
  O   O1448     1.0  0.67210  0.20544  0.01301  1.0000
  O   O1449     1.0  0.72790  0.39456  0.18094  1.0000
  O   O1450     1.0  0.66667  0.27210  0.18094  1.0000
  O   O1451     1.0  0.73333  0.32790  0.01301  1.0000
  O   O1452     1.0  0.79456  0.26667  0.01301  1.0000
  O   O1453     1.0  0.73877  0.20000  0.04660  1.0000
  O   O1454     1.0  0.60544  0.27210  0.08018  1.0000
  O   O1455     1.0  0.66123  0.26123  0.04660  1.0000
  O   O1456     1.0  0.80000  0.33877  0.04660  1.0000
  O   O1457     1.0  0.66667  0.39456  0.08018  1.0000
  O   O1458     1.0  0.72790  0.33333  0.08018  1.0000
  Al  Al973     1.0  0.66667  0.33333  0.36188  1.0000
  Al  Al974     1.0  0.73333  0.26667  0.33585  1.0000
  Al  Al975     1.0  0.60000  0.20000  0.32829  1.0000
  Al  Al976     1.0  0.66667  0.33333  0.30227  1.0000
  Al  Al977     1.0  0.60000  0.20000  0.22754  1.0000
  Al  Al978     1.0  0.66667  0.33333  0.20151  1.0000
  Al  Al979     1.0  0.73333  0.26667  0.39546  1.0000
  Al  Al980     1.0  0.60000  0.20000  0.36944  1.0000
  Al  Al981     1.0  0.73333  0.26667  0.29471  1.0000
  Al  Al982     1.0  0.60000  0.20000  0.26868  1.0000
  Al  Al983     1.0  0.66667  0.33333  0.26112  1.0000
  Al  Al984     1.0  0.73333  0.26667  0.23510  1.0000
  O   O1459     1.0  0.67210  0.26667  0.31528  1.0000
  O   O1460     1.0  0.73877  0.33877  0.34887  1.0000
  O   O1461     1.0  0.79456  0.32790  0.31528  1.0000
  O   O1462     1.0  0.73333  0.20544  0.31528  1.0000
  O   O1463     1.0  0.60000  0.26123  0.34887  1.0000
  O   O1464     1.0  0.66123  0.20000  0.34887  1.0000
  O   O1465     1.0  0.60544  0.33333  0.38245  1.0000
  O   O1466     1.0  0.67210  0.20544  0.21452  1.0000
  O   O1467     1.0  0.72790  0.39456  0.38245  1.0000
  O   O1468     1.0  0.66667  0.27210  0.38245  1.0000
  O   O1469     1.0  0.73333  0.32790  0.21452  1.0000
  O   O1470     1.0  0.79456  0.26667  0.21452  1.0000
  O   O1471     1.0  0.73877  0.20000  0.24811  1.0000
  O   O1472     1.0  0.60544  0.27210  0.28169  1.0000
  O   O1473     1.0  0.66123  0.26123  0.24811  1.0000
  O   O1474     1.0  0.80000  0.33877  0.24811  1.0000
  O   O1475     1.0  0.66667  0.39456  0.28169  1.0000
  O   O1476     1.0  0.72790  0.33333  0.28169  1.0000
  Al  Al985     1.0  0.66667  0.33333  0.56339  1.0000
  Al  Al986     1.0  0.73333  0.26667  0.53737  1.0000
  Al  Al987     1.0  0.60000  0.20000  0.52980  1.0000
  Al  Al988     1.0  0.66667  0.33333  0.50378  1.0000
  Al  Al989     1.0  0.60000  0.20000  0.42905  1.0000
  Al  Al990     1.0  0.66667  0.33333  0.40302  1.0000
  Al  Al991     1.0  0.73333  0.26667  0.59698  1.0000
  Al  Al992     1.0  0.60000  0.20000  0.57095  1.0000
  Al  Al993     1.0  0.73333  0.26667  0.49622  1.0000
  Al  Al994     1.0  0.60000  0.20000  0.47020  1.0000
  Al  Al995     1.0  0.66667  0.33333  0.46263  1.0000
  Al  Al996     1.0  0.73333  0.26667  0.43661  1.0000
  O   O1477     1.0  0.67210  0.26667  0.51679  1.0000
  O   O1478     1.0  0.73877  0.33877  0.55038  1.0000
  O   O1479     1.0  0.79456  0.32790  0.51679  1.0000
  O   O1480     1.0  0.73333  0.20544  0.51679  1.0000
  O   O1481     1.0  0.60000  0.26123  0.55038  1.0000
  O   O1482     1.0  0.66123  0.20000  0.55038  1.0000
  O   O1483     1.0  0.60544  0.33333  0.58396  1.0000
  O   O1484     1.0  0.67210  0.20544  0.41604  1.0000
  O   O1485     1.0  0.72790  0.39456  0.58396  1.0000
  O   O1486     1.0  0.66667  0.27210  0.58396  1.0000
  O   O1487     1.0  0.73333  0.32790  0.41604  1.0000
  O   O1488     1.0  0.79456  0.26667  0.41604  1.0000
  O   O1489     1.0  0.73877  0.20000  0.44962  1.0000
  O   O1490     1.0  0.60544  0.27210  0.48321  1.0000
  O   O1491     1.0  0.66123  0.26123  0.44962  1.0000
  O   O1492     1.0  0.80000  0.33877  0.44962  1.0000
  O   O1493     1.0  0.66667  0.39456  0.48321  1.0000
  O   O1494     1.0  0.72790  0.33333  0.48321  1.0000
  Al  Al997     1.0  0.66667  0.33333  0.76490  1.0000
  Al  Al998     1.0  0.73333  0.26667  0.73888  1.0000
  Al  Al999     1.0  0.60000  0.20000  0.73132  1.0000
  Al  Al1000    1.0  0.66667  0.33333  0.70529  1.0000
  Al  Al1001    1.0  0.60000  0.20000  0.63056  1.0000
  Al  Al1002    1.0  0.66667  0.33333  0.60454  1.0000
  Al  Al1003    1.0  0.73333  0.26667  0.79849  1.0000
  Al  Al1004    1.0  0.60000  0.20000  0.77246  1.0000
  Al  Al1005    1.0  0.73333  0.26667  0.69773  1.0000
  Al  Al1006    1.0  0.60000  0.20000  0.67171  1.0000
  Al  Al1007    1.0  0.66667  0.33333  0.66415  1.0000
  Al  Al1008    1.0  0.73333  0.26667  0.63812  1.0000
  O   O1495     1.0  0.67210  0.26667  0.71831  1.0000
  O   O1496     1.0  0.73877  0.33877  0.75189  1.0000
  O   O1497     1.0  0.79456  0.32790  0.71831  1.0000
  O   O1498     1.0  0.73333  0.20544  0.71831  1.0000
  O   O1499     1.0  0.60000  0.26123  0.75189  1.0000
  O   O1500     1.0  0.66123  0.20000  0.75189  1.0000
  O   O1501     1.0  0.60544  0.33333  0.78548  1.0000
  O   O1502     1.0  0.67210  0.20544  0.61755  1.0000
  O   O1503     1.0  0.72790  0.39456  0.78548  1.0000
  O   O1504     1.0  0.66667  0.27210  0.78548  1.0000
  O   O1505     1.0  0.73333  0.32790  0.61755  1.0000
  O   O1506     1.0  0.79456  0.26667  0.61755  1.0000
  O   O1507     1.0  0.73877  0.20000  0.65113  1.0000
  O   O1508     1.0  0.60544  0.27210  0.68472  1.0000
  O   O1509     1.0  0.66123  0.26123  0.65113  1.0000
  O   O1510     1.0  0.80000  0.33877  0.65113  1.0000
  O   O1511     1.0  0.66667  0.39456  0.68472  1.0000
  O   O1512     1.0  0.72790  0.33333  0.68472  1.0000
  Al  Al1009    1.0  0.66667  0.33333  0.96641  1.0000
  Al  Al1010    1.0  0.73333  0.26667  0.94039  1.0000
  Al  Al1011    1.0  0.60000  0.20000  0.93283  1.0000
  Al  Al1012    1.0  0.66667  0.33333  0.90681  1.0000
  Al  Al1013    1.0  0.60000  0.20000  0.83207  1.0000
  Al  Al1014    1.0  0.66667  0.33333  0.80605  1.0000
  Al  Al1015    1.0  0.73333  0.26667  1.00000  1.0000
  Al  Al1016    1.0  0.60000  0.20000  0.97398  1.0000
  Al  Al1017    1.0  0.73333  0.26667  0.89924  1.0000
  Al  Al1018    1.0  0.60000  0.20000  0.87322  1.0000
  Al  Al1019    1.0  0.66667  0.33333  0.86566  1.0000
  Al  Al1020    1.0  0.73333  0.26667  0.83963  1.0000
  O   O1513     1.0  0.67210  0.26667  0.91982  1.0000
  O   O1514     1.0  0.73877  0.33877  0.95340  1.0000
  O   O1515     1.0  0.79456  0.32790  0.91982  1.0000
  O   O1516     1.0  0.73333  0.20544  0.91982  1.0000
  O   O1517     1.0  0.60000  0.26123  0.95340  1.0000
  O   O1518     1.0  0.66123  0.20000  0.95340  1.0000
  O   O1519     1.0  0.60544  0.33333  0.98699  1.0000
  O   O1520     1.0  0.67210  0.20544  0.81906  1.0000
  O   O1521     1.0  0.72790  0.39456  0.98699  1.0000
  O   O1522     1.0  0.66667  0.27210  0.98699  1.0000
  O   O1523     1.0  0.73333  0.32790  0.81906  1.0000
  O   O1524     1.0  0.79456  0.26667  0.81906  1.0000
  O   O1525     1.0  0.73877  0.20000  0.85265  1.0000
  O   O1526     1.0  0.60544  0.27210  0.88623  1.0000
  O   O1527     1.0  0.66123  0.26123  0.85265  1.0000
  O   O1528     1.0  0.80000  0.33877  0.85265  1.0000
  O   O1529     1.0  0.66667  0.39456  0.88623  1.0000
  O   O1530     1.0  0.72790  0.33333  0.88623  1.0000
  Al  Al1021    1.0  0.66667  0.53333  0.16037  1.0000
  Al  Al1022    1.0  0.73333  0.46667  0.13434  1.0000
  Al  Al1023    1.0  0.60000  0.40000  0.12678  1.0000
  Al  Al1024    1.0  0.66667  0.53333  0.10076  1.0000
  Al  Al1025    1.0  0.60000  0.40000  0.02602  1.0000
  Al  Al1026    1.0  0.66667  0.53333  0.00000  1.0000
  Al  Al1027    1.0  0.73333  0.46667  0.19395  1.0000
  Al  Al1028    1.0  0.60000  0.40000  0.16793  1.0000
  Al  Al1029    1.0  0.73333  0.46667  0.09319  1.0000
  Al  Al1030    1.0  0.60000  0.40000  0.06717  1.0000
  Al  Al1031    1.0  0.66667  0.53333  0.05961  1.0000
  Al  Al1032    1.0  0.73333  0.46667  0.03359  1.0000
  O   O1531     1.0  0.67210  0.46667  0.11377  1.0000
  O   O1532     1.0  0.73877  0.53877  0.14735  1.0000
  O   O1533     1.0  0.79456  0.52790  0.11377  1.0000
  O   O1534     1.0  0.73333  0.40544  0.11377  1.0000
  O   O1535     1.0  0.60000  0.46123  0.14735  1.0000
  O   O1536     1.0  0.66123  0.40000  0.14735  1.0000
  O   O1537     1.0  0.60544  0.53333  0.18094  1.0000
  O   O1538     1.0  0.67210  0.40544  0.01301  1.0000
  O   O1539     1.0  0.72790  0.59456  0.18094  1.0000
  O   O1540     1.0  0.66667  0.47210  0.18094  1.0000
  O   O1541     1.0  0.73333  0.52790  0.01301  1.0000
  O   O1542     1.0  0.79456  0.46667  0.01301  1.0000
  O   O1543     1.0  0.73877  0.40000  0.04660  1.0000
  O   O1544     1.0  0.60544  0.47210  0.08018  1.0000
  O   O1545     1.0  0.66123  0.46123  0.04660  1.0000
  O   O1546     1.0  0.80000  0.53877  0.04660  1.0000
  O   O1547     1.0  0.66667  0.59456  0.08018  1.0000
  O   O1548     1.0  0.72790  0.53333  0.08018  1.0000
  Al  Al1033    1.0  0.66667  0.53333  0.36188  1.0000
  Al  Al1034    1.0  0.73333  0.46667  0.33585  1.0000
  Al  Al1035    1.0  0.60000  0.40000  0.32829  1.0000
  Al  Al1036    1.0  0.66667  0.53333  0.30227  1.0000
  Al  Al1037    1.0  0.60000  0.40000  0.22754  1.0000
  Al  Al1038    1.0  0.66667  0.53333  0.20151  1.0000
  Al  Al1039    1.0  0.73333  0.46667  0.39546  1.0000
  Al  Al1040    1.0  0.60000  0.40000  0.36944  1.0000
  Al  Al1041    1.0  0.73333  0.46667  0.29471  1.0000
  Al  Al1042    1.0  0.60000  0.40000  0.26868  1.0000
  Al  Al1043    1.0  0.66667  0.53333  0.26112  1.0000
  Al  Al1044    1.0  0.73333  0.46667  0.23510  1.0000
  O   O1549     1.0  0.67210  0.46667  0.31528  1.0000
  O   O1550     1.0  0.73877  0.53877  0.34887  1.0000
  O   O1551     1.0  0.79456  0.52790  0.31528  1.0000
  O   O1552     1.0  0.73333  0.40544  0.31528  1.0000
  O   O1553     1.0  0.60000  0.46123  0.34887  1.0000
  O   O1554     1.0  0.66123  0.40000  0.34887  1.0000
  O   O1555     1.0  0.60544  0.53333  0.38245  1.0000
  O   O1556     1.0  0.67210  0.40544  0.21452  1.0000
  O   O1557     1.0  0.72790  0.59456  0.38245  1.0000
  O   O1558     1.0  0.66667  0.47210  0.38245  1.0000
  O   O1559     1.0  0.73333  0.52790  0.21452  1.0000
  O   O1560     1.0  0.79456  0.46667  0.21452  1.0000
  O   O1561     1.0  0.73877  0.40000  0.24811  1.0000
  O   O1562     1.0  0.60544  0.47210  0.28169  1.0000
  O   O1563     1.0  0.66123  0.46123  0.24811  1.0000
  O   O1564     1.0  0.80000  0.53877  0.24811  1.0000
  O   O1565     1.0  0.66667  0.59456  0.28169  1.0000
  O   O1566     1.0  0.72790  0.53333  0.28169  1.0000
  Al  Al1045    1.0  0.66667  0.53333  0.56339  1.0000
  Al  Al1046    1.0  0.73333  0.46667  0.53737  1.0000
  Al  Al1047    1.0  0.60000  0.40000  0.52980  1.0000
  Al  Al1048    1.0  0.66667  0.53333  0.50378  1.0000
  Al  Al1049    1.0  0.60000  0.40000  0.42905  1.0000
  Al  Al1050    1.0  0.66667  0.53333  0.40302  1.0000
  Al  Al1051    1.0  0.73333  0.46667  0.59698  1.0000
  Al  Al1052    1.0  0.60000  0.40000  0.57095  1.0000
  Al  Al1053    1.0  0.73333  0.46667  0.49622  1.0000
  Al  Al1054    1.0  0.60000  0.40000  0.47020  1.0000
  Al  Al1055    1.0  0.66667  0.53333  0.46263  1.0000
  Al  Al1056    1.0  0.73333  0.46667  0.43661  1.0000
  O   O1567     1.0  0.67210  0.46667  0.51679  1.0000
  O   O1568     1.0  0.73877  0.53877  0.55038  1.0000
  O   O1569     1.0  0.79456  0.52790  0.51679  1.0000
  O   O1570     1.0  0.73333  0.40544  0.51679  1.0000
  O   O1571     1.0  0.60000  0.46123  0.55038  1.0000
  O   O1572     1.0  0.66123  0.40000  0.55038  1.0000
  O   O1573     1.0  0.60544  0.53333  0.58396  1.0000
  O   O1574     1.0  0.67210  0.40544  0.41604  1.0000
  O   O1575     1.0  0.72790  0.59456  0.58396  1.0000
  O   O1576     1.0  0.66667  0.47210  0.58396  1.0000
  O   O1577     1.0  0.73333  0.52790  0.41604  1.0000
  O   O1578     1.0  0.79456  0.46667  0.41604  1.0000
  O   O1579     1.0  0.73877  0.40000  0.44962  1.0000
  O   O1580     1.0  0.60544  0.47210  0.48321  1.0000
  O   O1581     1.0  0.66123  0.46123  0.44962  1.0000
  O   O1582     1.0  0.80000  0.53877  0.44962  1.0000
  O   O1583     1.0  0.66667  0.59456  0.48321  1.0000
  O   O1584     1.0  0.72790  0.53333  0.48321  1.0000
  Al  Al1057    1.0  0.66667  0.53333  0.76490  1.0000
  Al  Al1058    1.0  0.73333  0.46667  0.73888  1.0000
  Al  Al1059    1.0  0.60000  0.40000  0.73132  1.0000
  Al  Al1060    1.0  0.66667  0.53333  0.70529  1.0000
  Al  Al1061    1.0  0.60000  0.40000  0.63056  1.0000
  Al  Al1062    1.0  0.66667  0.53333  0.60454  1.0000
  Al  Al1063    1.0  0.73333  0.46667  0.79849  1.0000
  Al  Al1064    1.0  0.60000  0.40000  0.77246  1.0000
  Al  Al1065    1.0  0.73333  0.46667  0.69773  1.0000
  Al  Al1066    1.0  0.60000  0.40000  0.67171  1.0000
  Al  Al1067    1.0  0.66667  0.53333  0.66415  1.0000
  Al  Al1068    1.0  0.73333  0.46667  0.63812  1.0000
  O   O1585     1.0  0.67210  0.46667  0.71831  1.0000
  O   O1586     1.0  0.73877  0.53877  0.75189  1.0000
  O   O1587     1.0  0.79456  0.52790  0.71831  1.0000
  O   O1588     1.0  0.73333  0.40544  0.71831  1.0000
  O   O1589     1.0  0.60000  0.46123  0.75189  1.0000
  O   O1590     1.0  0.66123  0.40000  0.75189  1.0000
  O   O1591     1.0  0.60544  0.53333  0.78548  1.0000
  O   O1592     1.0  0.67210  0.40544  0.61755  1.0000
  O   O1593     1.0  0.72790  0.59456  0.78548  1.0000
  O   O1594     1.0  0.66667  0.47210  0.78548  1.0000
  O   O1595     1.0  0.73333  0.52790  0.61755  1.0000
  O   O1596     1.0  0.79456  0.46667  0.61755  1.0000
  O   O1597     1.0  0.73877  0.40000  0.65113  1.0000
  O   O1598     1.0  0.60544  0.47210  0.68472  1.0000
  O   O1599     1.0  0.66123  0.46123  0.65113  1.0000
  O   O1600     1.0  0.80000  0.53877  0.65113  1.0000
  O   O1601     1.0  0.66667  0.59456  0.68472  1.0000
  O   O1602     1.0  0.72790  0.53333  0.68472  1.0000
  Al  Al1069    1.0  0.66667  0.53333  0.96641  1.0000
  Al  Al1070    1.0  0.73333  0.46667  0.94039  1.0000
  Al  Al1071    1.0  0.60000  0.40000  0.93283  1.0000
  Al  Al1072    1.0  0.66667  0.53333  0.90681  1.0000
  Al  Al1073    1.0  0.60000  0.40000  0.83207  1.0000
  Al  Al1074    1.0  0.66667  0.53333  0.80605  1.0000
  Al  Al1075    1.0  0.73333  0.46667  1.00000  1.0000
  Al  Al1076    1.0  0.60000  0.40000  0.97398  1.0000
  Al  Al1077    1.0  0.73333  0.46667  0.89924  1.0000
  Al  Al1078    1.0  0.60000  0.40000  0.87322  1.0000
  Al  Al1079    1.0  0.66667  0.53333  0.86566  1.0000
  Al  Al1080    1.0  0.73333  0.46667  0.83963  1.0000
  O   O1603     1.0  0.67210  0.46667  0.91982  1.0000
  O   O1604     1.0  0.73877  0.53877  0.95340  1.0000
  O   O1605     1.0  0.79456  0.52790  0.91982  1.0000
  O   O1606     1.0  0.73333  0.40544  0.91982  1.0000
  O   O1607     1.0  0.60000  0.46123  0.95340  1.0000
  O   O1608     1.0  0.66123  0.40000  0.95340  1.0000
  O   O1609     1.0  0.60544  0.53333  0.98699  1.0000
  O   O1610     1.0  0.67210  0.40544  0.81906  1.0000
  O   O1611     1.0  0.72790  0.59456  0.98699  1.0000
  O   O1612     1.0  0.66667  0.47210  0.98699  1.0000
  O   O1613     1.0  0.73333  0.52790  0.81906  1.0000
  O   O1614     1.0  0.79456  0.46667  0.81906  1.0000
  O   O1615     1.0  0.73877  0.40000  0.85265  1.0000
  O   O1616     1.0  0.60544  0.47210  0.88623  1.0000
  O   O1617     1.0  0.66123  0.46123  0.85265  1.0000
  O   O1618     1.0  0.80000  0.53877  0.85265  1.0000
  O   O1619     1.0  0.66667  0.59456  0.88623  1.0000
  O   O1620     1.0  0.72790  0.53333  0.88623  1.0000
  Al  Al1081    1.0  0.66667  0.73333  0.16037  1.0000
  Al  Al1082    1.0  0.73333  0.66667  0.13434  1.0000
  Al  Al1083    1.0  0.60000  0.60000  0.12678  1.0000
  Al  Al1084    1.0  0.66667  0.73333  0.10076  1.0000
  Al  Al1085    1.0  0.60000  0.60000  0.02602  1.0000
  Al  Al1086    1.0  0.66667  0.73333  0.00000  1.0000
  Al  Al1087    1.0  0.73333  0.66667  0.19395  1.0000
  Al  Al1088    1.0  0.60000  0.60000  0.16793  1.0000
  Al  Al1089    1.0  0.73333  0.66667  0.09319  1.0000
  Al  Al1090    1.0  0.60000  0.60000  0.06717  1.0000
  Al  Al1091    1.0  0.66667  0.73333  0.05961  1.0000
  Al  Al1092    1.0  0.73333  0.66667  0.03359  1.0000
  O   O1621     1.0  0.67210  0.66667  0.11377  1.0000
  O   O1622     1.0  0.73877  0.73877  0.14735  1.0000
  O   O1623     1.0  0.79456  0.72790  0.11377  1.0000
  O   O1624     1.0  0.73333  0.60544  0.11377  1.0000
  O   O1625     1.0  0.60000  0.66123  0.14735  1.0000
  O   O1626     1.0  0.66123  0.60000  0.14735  1.0000
  O   O1627     1.0  0.60544  0.73333  0.18094  1.0000
  O   O1628     1.0  0.67210  0.60544  0.01301  1.0000
  O   O1629     1.0  0.72790  0.79456  0.18094  1.0000
  O   O1630     1.0  0.66667  0.67210  0.18094  1.0000
  O   O1631     1.0  0.73333  0.72790  0.01301  1.0000
  O   O1632     1.0  0.79456  0.66667  0.01301  1.0000
  O   O1633     1.0  0.73877  0.60000  0.04660  1.0000
  O   O1634     1.0  0.60544  0.67210  0.08018  1.0000
  O   O1635     1.0  0.66123  0.66123  0.04660  1.0000
  O   O1636     1.0  0.80000  0.73877  0.04660  1.0000
  O   O1637     1.0  0.66667  0.79456  0.08018  1.0000
  O   O1638     1.0  0.72790  0.73333  0.08018  1.0000
  Al  Al1093    1.0  0.66667  0.73333  0.36188  1.0000
  Al  Al1094    1.0  0.73333  0.66667  0.33585  1.0000
  Al  Al1095    1.0  0.60000  0.60000  0.32829  1.0000
  Al  Al1096    1.0  0.66667  0.73333  0.30227  1.0000
  Al  Al1097    1.0  0.60000  0.60000  0.22754  1.0000
  Al  Al1098    1.0  0.66667  0.73333  0.20151  1.0000
  Al  Al1099    1.0  0.73333  0.66667  0.39546  1.0000
  Al  Al1100    1.0  0.60000  0.60000  0.36944  1.0000
  Al  Al1101    1.0  0.73333  0.66667  0.29471  1.0000
  Al  Al1102    1.0  0.60000  0.60000  0.26868  1.0000
  Al  Al1103    1.0  0.66667  0.73333  0.26112  1.0000
  Al  Al1104    1.0  0.73333  0.66667  0.23510  1.0000
  O   O1639     1.0  0.67210  0.66667  0.31528  1.0000
  O   O1640     1.0  0.73877  0.73877  0.34887  1.0000
  O   O1641     1.0  0.79456  0.72790  0.31528  1.0000
  O   O1642     1.0  0.73333  0.60544  0.31528  1.0000
  O   O1643     1.0  0.60000  0.66123  0.34887  1.0000
  O   O1644     1.0  0.66123  0.60000  0.34887  1.0000
  O   O1645     1.0  0.60544  0.73333  0.38245  1.0000
  O   O1646     1.0  0.67210  0.60544  0.21452  1.0000
  O   O1647     1.0  0.72790  0.79456  0.38245  1.0000
  O   O1648     1.0  0.66667  0.67210  0.38245  1.0000
  O   O1649     1.0  0.73333  0.72790  0.21452  1.0000
  O   O1650     1.0  0.79456  0.66667  0.21452  1.0000
  O   O1651     1.0  0.73877  0.60000  0.24811  1.0000
  O   O1652     1.0  0.60544  0.67210  0.28169  1.0000
  O   O1653     1.0  0.66123  0.66123  0.24811  1.0000
  O   O1654     1.0  0.80000  0.73877  0.24811  1.0000
  O   O1655     1.0  0.66667  0.79456  0.28169  1.0000
  O   O1656     1.0  0.72790  0.73333  0.28169  1.0000
  Al  Al1105    1.0  0.66667  0.73333  0.56339  1.0000
  Al  Al1106    1.0  0.73333  0.66667  0.53737  1.0000
  Al  Al1107    1.0  0.60000  0.60000  0.52980  1.0000
  Al  Al1108    1.0  0.66667  0.73333  0.50378  1.0000
  Al  Al1109    1.0  0.60000  0.60000  0.42905  1.0000
  Al  Al1110    1.0  0.66667  0.73333  0.40302  1.0000
  Al  Al1111    1.0  0.73333  0.66667  0.59698  1.0000
  Al  Al1112    1.0  0.60000  0.60000  0.57095  1.0000
  Al  Al1113    1.0  0.73333  0.66667  0.49622  1.0000
  Al  Al1114    1.0  0.60000  0.60000  0.47020  1.0000
  Al  Al1115    1.0  0.66667  0.73333  0.46263  1.0000
  Al  Al1116    1.0  0.73333  0.66667  0.43661  1.0000
  O   O1657     1.0  0.67210  0.66667  0.51679  1.0000
  O   O1658     1.0  0.73877  0.73877  0.55038  1.0000
  O   O1659     1.0  0.79456  0.72790  0.51679  1.0000
  O   O1660     1.0  0.73333  0.60544  0.51679  1.0000
  O   O1661     1.0  0.60000  0.66123  0.55038  1.0000
  O   O1662     1.0  0.66123  0.60000  0.55038  1.0000
  O   O1663     1.0  0.60544  0.73333  0.58396  1.0000
  O   O1664     1.0  0.67210  0.60544  0.41604  1.0000
  O   O1665     1.0  0.72790  0.79456  0.58396  1.0000
  O   O1666     1.0  0.66667  0.67210  0.58396  1.0000
  O   O1667     1.0  0.73333  0.72790  0.41604  1.0000
  O   O1668     1.0  0.79456  0.66667  0.41604  1.0000
  O   O1669     1.0  0.73877  0.60000  0.44962  1.0000
  O   O1670     1.0  0.60544  0.67210  0.48321  1.0000
  O   O1671     1.0  0.66123  0.66123  0.44962  1.0000
  O   O1672     1.0  0.80000  0.73877  0.44962  1.0000
  O   O1673     1.0  0.66667  0.79456  0.48321  1.0000
  O   O1674     1.0  0.72790  0.73333  0.48321  1.0000
  Al  Al1117    1.0  0.66667  0.73333  0.76490  1.0000
  Al  Al1118    1.0  0.73333  0.66667  0.73888  1.0000
  Al  Al1119    1.0  0.60000  0.60000  0.73132  1.0000
  Al  Al1120    1.0  0.66667  0.73333  0.70529  1.0000
  Al  Al1121    1.0  0.60000  0.60000  0.63056  1.0000
  Al  Al1122    1.0  0.66667  0.73333  0.60454  1.0000
  Al  Al1123    1.0  0.73333  0.66667  0.79849  1.0000
  Al  Al1124    1.0  0.60000  0.60000  0.77246  1.0000
  Al  Al1125    1.0  0.73333  0.66667  0.69773  1.0000
  Al  Al1126    1.0  0.60000  0.60000  0.67171  1.0000
  Al  Al1127    1.0  0.66667  0.73333  0.66415  1.0000
  Al  Al1128    1.0  0.73333  0.66667  0.63812  1.0000
  O   O1675     1.0  0.67210  0.66667  0.71831  1.0000
  O   O1676     1.0  0.73877  0.73877  0.75189  1.0000
  O   O1677     1.0  0.79456  0.72790  0.71831  1.0000
  O   O1678     1.0  0.73333  0.60544  0.71831  1.0000
  O   O1679     1.0  0.60000  0.66123  0.75189  1.0000
  O   O1680     1.0  0.66123  0.60000  0.75189  1.0000
  O   O1681     1.0  0.60544  0.73333  0.78548  1.0000
  O   O1682     1.0  0.67210  0.60544  0.61755  1.0000
  O   O1683     1.0  0.72790  0.79456  0.78548  1.0000
  O   O1684     1.0  0.66667  0.67210  0.78548  1.0000
  O   O1685     1.0  0.73333  0.72790  0.61755  1.0000
  O   O1686     1.0  0.79456  0.66667  0.61755  1.0000
  O   O1687     1.0  0.73877  0.60000  0.65113  1.0000
  O   O1688     1.0  0.60544  0.67210  0.68472  1.0000
  O   O1689     1.0  0.66123  0.66123  0.65113  1.0000
  O   O1690     1.0  0.80000  0.73877  0.65113  1.0000
  O   O1691     1.0  0.66667  0.79456  0.68472  1.0000
  O   O1692     1.0  0.72790  0.73333  0.68472  1.0000
  Al  Al1129    1.0  0.66667  0.73333  0.96641  1.0000
  Al  Al1130    1.0  0.73333  0.66667  0.94039  1.0000
  Al  Al1131    1.0  0.60000  0.60000  0.93283  1.0000
  Al  Al1132    1.0  0.66667  0.73333  0.90681  1.0000
  Al  Al1133    1.0  0.60000  0.60000  0.83207  1.0000
  Al  Al1134    1.0  0.66667  0.73333  0.80605  1.0000
  Al  Al1135    1.0  0.73333  0.66667  1.00000  1.0000
  Al  Al1136    1.0  0.60000  0.60000  0.97398  1.0000
  Al  Al1137    1.0  0.73333  0.66667  0.89924  1.0000
  Al  Al1138    1.0  0.60000  0.60000  0.87322  1.0000
  Al  Al1139    1.0  0.66667  0.73333  0.86566  1.0000
  Al  Al1140    1.0  0.73333  0.66667  0.83963  1.0000
  O   O1693     1.0  0.67210  0.66667  0.91982  1.0000
  O   O1694     1.0  0.73877  0.73877  0.95340  1.0000
  O   O1695     1.0  0.79456  0.72790  0.91982  1.0000
  O   O1696     1.0  0.73333  0.60544  0.91982  1.0000
  O   O1697     1.0  0.60000  0.66123  0.95340  1.0000
  O   O1698     1.0  0.66123  0.60000  0.95340  1.0000
  O   O1699     1.0  0.60544  0.73333  0.98699  1.0000
  O   O1700     1.0  0.67210  0.60544  0.81906  1.0000
  O   O1701     1.0  0.72790  0.79456  0.98699  1.0000
  O   O1702     1.0  0.66667  0.67210  0.98699  1.0000
  O   O1703     1.0  0.73333  0.72790  0.81906  1.0000
  O   O1704     1.0  0.79456  0.66667  0.81906  1.0000
  O   O1705     1.0  0.73877  0.60000  0.85265  1.0000
  O   O1706     1.0  0.60544  0.67210  0.88623  1.0000
  O   O1707     1.0  0.66123  0.66123  0.85265  1.0000
  O   O1708     1.0  0.80000  0.73877  0.85265  1.0000
  O   O1709     1.0  0.66667  0.79456  0.88623  1.0000
  O   O1710     1.0  0.72790  0.73333  0.88623  1.0000
  Al  Al1141    1.0  0.66667  0.93333  0.16037  1.0000
  Al  Al1142    1.0  0.73333  0.86667  0.13434  1.0000
  Al  Al1143    1.0  0.60000  0.80000  0.12678  1.0000
  Al  Al1144    1.0  0.66667  0.93333  0.10076  1.0000
  Al  Al1145    1.0  0.60000  0.80000  0.02602  1.0000
  Al  Al1146    1.0  0.66667  0.93333  0.00000  1.0000
  Al  Al1147    1.0  0.73333  0.86667  0.19395  1.0000
  Al  Al1148    1.0  0.60000  0.80000  0.16793  1.0000
  Al  Al1149    1.0  0.73333  0.86667  0.09319  1.0000
  Al  Al1150    1.0  0.60000  0.80000  0.06717  1.0000
  Al  Al1151    1.0  0.66667  0.93333  0.05961  1.0000
  Al  Al1152    1.0  0.73333  0.86667  0.03359  1.0000
  O   O1711     1.0  0.67210  0.86667  0.11377  1.0000
  O   O1712     1.0  0.73877  0.93877  0.14735  1.0000
  O   O1713     1.0  0.79456  0.92790  0.11377  1.0000
  O   O1714     1.0  0.73333  0.80544  0.11377  1.0000
  O   O1715     1.0  0.60000  0.86123  0.14735  1.0000
  O   O1716     1.0  0.66123  0.80000  0.14735  1.0000
  O   O1717     1.0  0.60544  0.93333  0.18094  1.0000
  O   O1718     1.0  0.67210  0.80544  0.01301  1.0000
  O   O1719     1.0  0.72790  0.99456  0.18094  1.0000
  O   O1720     1.0  0.66667  0.87210  0.18094  1.0000
  O   O1721     1.0  0.73333  0.92790  0.01301  1.0000
  O   O1722     1.0  0.79456  0.86667  0.01301  1.0000
  O   O1723     1.0  0.73877  0.80000  0.04660  1.0000
  O   O1724     1.0  0.60544  0.87210  0.08018  1.0000
  O   O1725     1.0  0.66123  0.86123  0.04660  1.0000
  O   O1726     1.0  0.80000  0.93877  0.04660  1.0000
  O   O1727     1.0  0.66667  0.99456  0.08018  1.0000
  O   O1728     1.0  0.72790  0.93333  0.08018  1.0000
  Al  Al1153    1.0  0.66667  0.93333  0.36188  1.0000
  Al  Al1154    1.0  0.73333  0.86667  0.33585  1.0000
  Al  Al1155    1.0  0.60000  0.80000  0.32829  1.0000
  Al  Al1156    1.0  0.66667  0.93333  0.30227  1.0000
  Al  Al1157    1.0  0.60000  0.80000  0.22754  1.0000
  Al  Al1158    1.0  0.66667  0.93333  0.20151  1.0000
  Al  Al1159    1.0  0.73333  0.86667  0.39546  1.0000
  Al  Al1160    1.0  0.60000  0.80000  0.36944  1.0000
  Al  Al1161    1.0  0.73333  0.86667  0.29471  1.0000
  Al  Al1162    1.0  0.60000  0.80000  0.26868  1.0000
  Al  Al1163    1.0  0.66667  0.93333  0.26112  1.0000
  Al  Al1164    1.0  0.73333  0.86667  0.23510  1.0000
  O   O1729     1.0  0.67210  0.86667  0.31528  1.0000
  O   O1730     1.0  0.73877  0.93877  0.34887  1.0000
  O   O1731     1.0  0.79456  0.92790  0.31528  1.0000
  O   O1732     1.0  0.73333  0.80544  0.31528  1.0000
  O   O1733     1.0  0.60000  0.86123  0.34887  1.0000
  O   O1734     1.0  0.66123  0.80000  0.34887  1.0000
  O   O1735     1.0  0.60544  0.93333  0.38245  1.0000
  O   O1736     1.0  0.67210  0.80544  0.21452  1.0000
  O   O1737     1.0  0.72790  0.99456  0.38245  1.0000
  O   O1738     1.0  0.66667  0.87210  0.38245  1.0000
  O   O1739     1.0  0.73333  0.92790  0.21452  1.0000
  O   O1740     1.0  0.79456  0.86667  0.21452  1.0000
  O   O1741     1.0  0.73877  0.80000  0.24811  1.0000
  O   O1742     1.0  0.60544  0.87210  0.28169  1.0000
  O   O1743     1.0  0.66123  0.86123  0.24811  1.0000
  O   O1744     1.0  0.80000  0.93877  0.24811  1.0000
  O   O1745     1.0  0.66667  0.99456  0.28169  1.0000
  O   O1746     1.0  0.72790  0.93333  0.28169  1.0000
  Al  Al1165    1.0  0.66667  0.93333  0.56339  1.0000
  Al  Al1166    1.0  0.73333  0.86667  0.53737  1.0000
  Al  Al1167    1.0  0.60000  0.80000  0.52980  1.0000
  Al  Al1168    1.0  0.66667  0.93333  0.50378  1.0000
  Al  Al1169    1.0  0.60000  0.80000  0.42905  1.0000
  Al  Al1170    1.0  0.66667  0.93333  0.40302  1.0000
  Al  Al1171    1.0  0.73333  0.86667  0.59698  1.0000
  Al  Al1172    1.0  0.60000  0.80000  0.57095  1.0000
  Al  Al1173    1.0  0.73333  0.86667  0.49622  1.0000
  Al  Al1174    1.0  0.60000  0.80000  0.47020  1.0000
  Al  Al1175    1.0  0.66667  0.93333  0.46263  1.0000
  Al  Al1176    1.0  0.73333  0.86667  0.43661  1.0000
  O   O1747     1.0  0.67210  0.86667  0.51679  1.0000
  O   O1748     1.0  0.73877  0.93877  0.55038  1.0000
  O   O1749     1.0  0.79456  0.92790  0.51679  1.0000
  O   O1750     1.0  0.73333  0.80544  0.51679  1.0000
  O   O1751     1.0  0.60000  0.86123  0.55038  1.0000
  O   O1752     1.0  0.66123  0.80000  0.55038  1.0000
  O   O1753     1.0  0.60544  0.93333  0.58396  1.0000
  O   O1754     1.0  0.67210  0.80544  0.41604  1.0000
  O   O1755     1.0  0.72790  0.99456  0.58396  1.0000
  O   O1756     1.0  0.66667  0.87210  0.58396  1.0000
  O   O1757     1.0  0.73333  0.92790  0.41604  1.0000
  O   O1758     1.0  0.79456  0.86667  0.41604  1.0000
  O   O1759     1.0  0.73877  0.80000  0.44962  1.0000
  O   O1760     1.0  0.60544  0.87210  0.48321  1.0000
  O   O1761     1.0  0.66123  0.86123  0.44962  1.0000
  O   O1762     1.0  0.80000  0.93877  0.44962  1.0000
  O   O1763     1.0  0.66667  0.99456  0.48321  1.0000
  O   O1764     1.0  0.72790  0.93333  0.48321  1.0000
  Al  Al1177    1.0  0.66667  0.93333  0.76490  1.0000
  Al  Al1178    1.0  0.73333  0.86667  0.73888  1.0000
  Al  Al1179    1.0  0.60000  0.80000  0.73132  1.0000
  Al  Al1180    1.0  0.66667  0.93333  0.70529  1.0000
  Al  Al1181    1.0  0.60000  0.80000  0.63056  1.0000
  Al  Al1182    1.0  0.66667  0.93333  0.60454  1.0000
  Al  Al1183    1.0  0.73333  0.86667  0.79849  1.0000
  Al  Al1184    1.0  0.60000  0.80000  0.77246  1.0000
  Al  Al1185    1.0  0.73333  0.86667  0.69773  1.0000
  Al  Al1186    1.0  0.60000  0.80000  0.67171  1.0000
  Al  Al1187    1.0  0.66667  0.93333  0.66415  1.0000
  Al  Al1188    1.0  0.73333  0.86667  0.63812  1.0000
  O   O1765     1.0  0.67210  0.86667  0.71831  1.0000
  O   O1766     1.0  0.73877  0.93877  0.75189  1.0000
  O   O1767     1.0  0.79456  0.92790  0.71831  1.0000
  O   O1768     1.0  0.73333  0.80544  0.71831  1.0000
  O   O1769     1.0  0.60000  0.86123  0.75189  1.0000
  O   O1770     1.0  0.66123  0.80000  0.75189  1.0000
  O   O1771     1.0  0.60544  0.93333  0.78548  1.0000
  O   O1772     1.0  0.67210  0.80544  0.61755  1.0000
  O   O1773     1.0  0.72790  0.99456  0.78548  1.0000
  O   O1774     1.0  0.66667  0.87210  0.78548  1.0000
  O   O1775     1.0  0.73333  0.92790  0.61755  1.0000
  O   O1776     1.0  0.79456  0.86667  0.61755  1.0000
  O   O1777     1.0  0.73877  0.80000  0.65113  1.0000
  O   O1778     1.0  0.60544  0.87210  0.68472  1.0000
  O   O1779     1.0  0.66123  0.86123  0.65113  1.0000
  O   O1780     1.0  0.80000  0.93877  0.65113  1.0000
  O   O1781     1.0  0.66667  0.99456  0.68472  1.0000
  O   O1782     1.0  0.72790  0.93333  0.68472  1.0000
  Al  Al1189    1.0  0.66667  0.93333  0.96641  1.0000
  Al  Al1190    1.0  0.73333  0.86667  0.94039  1.0000
  Al  Al1191    1.0  0.60000  0.80000  0.93283  1.0000
  Al  Al1192    1.0  0.66667  0.93333  0.90681  1.0000
  Al  Al1193    1.0  0.60000  0.80000  0.83207  1.0000
  Al  Al1194    1.0  0.66667  0.93333  0.80605  1.0000
  Al  Al1195    1.0  0.73333  0.86667  1.00000  1.0000
  Al  Al1196    1.0  0.60000  0.80000  0.97398  1.0000
  Al  Al1197    1.0  0.73333  0.86667  0.89924  1.0000
  Al  Al1198    1.0  0.60000  0.80000  0.87322  1.0000
  Al  Al1199    1.0  0.66667  0.93333  0.86566  1.0000
  Al  Al1200    1.0  0.73333  0.86667  0.83963  1.0000
  O   O1783     1.0  0.67210  0.86667  0.91982  1.0000
  O   O1784     1.0  0.73877  0.93877  0.95340  1.0000
  O   O1785     1.0  0.79456  0.92790  0.91982  1.0000
  O   O1786     1.0  0.73333  0.80544  0.91982  1.0000
  O   O1787     1.0  0.60000  0.86123  0.95340  1.0000
  O   O1788     1.0  0.66123  0.80000  0.95340  1.0000
  O   O1789     1.0  0.60544  0.93333  0.98699  1.0000
  O   O1790     1.0  0.67210  0.80544  0.81906  1.0000
  O   O1791     1.0  0.72790  0.99456  0.98699  1.0000
  O   O1792     1.0  0.66667  0.87210  0.98699  1.0000
  O   O1793     1.0  0.73333  0.92790  0.81906  1.0000
  O   O1794     1.0  0.79456  0.86667  0.81906  1.0000
  O   O1795     1.0  0.73877  0.80000  0.85265  1.0000
  O   O1796     1.0  0.60544  0.87210  0.88623  1.0000
  O   O1797     1.0  0.66123  0.86123  0.85265  1.0000
  O   O1798     1.0  0.80000  0.93877  0.85265  1.0000
  O   O1799     1.0  0.66667  0.99456  0.88623  1.0000
  O   O1800     1.0  0.72790  0.93333  0.88623  1.0000
  Al  Al1201    1.0  0.86667  0.13333  0.16037  1.0000
  Al  Al1202    1.0  0.93333  0.06667  0.13434  1.0000
  Al  Al1203    1.0  0.80000  0.00000  0.12678  1.0000
  Al  Al1204    1.0  0.86667  0.13333  0.10076  1.0000
  Al  Al1205    1.0  0.80000  0.00000  0.02602  1.0000
  Al  Al1206    1.0  0.86667  0.13333  0.00000  1.0000
  Al  Al1207    1.0  0.93333  0.06667  0.19395  1.0000
  Al  Al1208    1.0  0.80000  0.00000  0.16793  1.0000
  Al  Al1209    1.0  0.93333  0.06667  0.09319  1.0000
  Al  Al1210    1.0  0.80000  0.00000  0.06717  1.0000
  Al  Al1211    1.0  0.86667  0.13333  0.05961  1.0000
  Al  Al1212    1.0  0.93333  0.06667  0.03359  1.0000
  O   O1801     1.0  0.87210  0.06667  0.11377  1.0000
  O   O1802     1.0  0.93877  0.13877  0.14735  1.0000
  O   O1803     1.0  0.99456  0.12790  0.11377  1.0000
  O   O1804     1.0  0.93333  0.00544  0.11377  1.0000
  O   O1805     1.0  0.80000  0.06123  0.14735  1.0000
  O   O1806     1.0  0.86123  0.00000  0.14735  1.0000
  O   O1807     1.0  0.80544  0.13333  0.18094  1.0000
  O   O1808     1.0  0.87210  0.00544  0.01301  1.0000
  O   O1809     1.0  0.92790  0.19456  0.18094  1.0000
  O   O1810     1.0  0.86667  0.07210  0.18094  1.0000
  O   O1811     1.0  0.93333  0.12790  0.01301  1.0000
  O   O1812     1.0  0.99456  0.06667  0.01301  1.0000
  O   O1813     1.0  0.93877  0.00000  0.04660  1.0000
  O   O1814     1.0  0.80544  0.07210  0.08018  1.0000
  O   O1815     1.0  0.86123  0.06123  0.04660  1.0000
  O   O1816     1.0  0.00000  0.13877  0.04660  1.0000
  O   O1817     1.0  0.86667  0.19456  0.08018  1.0000
  O   O1818     1.0  0.92790  0.13333  0.08018  1.0000
  Al  Al1213    1.0  0.86667  0.13333  0.36188  1.0000
  Al  Al1214    1.0  0.93333  0.06667  0.33585  1.0000
  Al  Al1215    1.0  0.80000  0.00000  0.32829  1.0000
  Al  Al1216    1.0  0.86667  0.13333  0.30227  1.0000
  Al  Al1217    1.0  0.80000  0.00000  0.22754  1.0000
  Al  Al1218    1.0  0.86667  0.13333  0.20151  1.0000
  Al  Al1219    1.0  0.93333  0.06667  0.39546  1.0000
  Al  Al1220    1.0  0.80000  0.00000  0.36944  1.0000
  Al  Al1221    1.0  0.93333  0.06667  0.29471  1.0000
  Al  Al1222    1.0  0.80000  0.00000  0.26868  1.0000
  Al  Al1223    1.0  0.86667  0.13333  0.26112  1.0000
  Al  Al1224    1.0  0.93333  0.06667  0.23510  1.0000
  O   O1819     1.0  0.87210  0.06667  0.31528  1.0000
  O   O1820     1.0  0.93877  0.13877  0.34887  1.0000
  O   O1821     1.0  0.99456  0.12790  0.31528  1.0000
  O   O1822     1.0  0.93333  0.00544  0.31528  1.0000
  O   O1823     1.0  0.80000  0.06123  0.34887  1.0000
  O   O1824     1.0  0.86123  0.00000  0.34887  1.0000
  O   O1825     1.0  0.80544  0.13333  0.38245  1.0000
  O   O1826     1.0  0.87210  0.00544  0.21452  1.0000
  O   O1827     1.0  0.92790  0.19456  0.38245  1.0000
  O   O1828     1.0  0.86667  0.07210  0.38245  1.0000
  O   O1829     1.0  0.93333  0.12790  0.21452  1.0000
  O   O1830     1.0  0.99456  0.06667  0.21452  1.0000
  O   O1831     1.0  0.93877  0.00000  0.24811  1.0000
  O   O1832     1.0  0.80544  0.07210  0.28169  1.0000
  O   O1833     1.0  0.86123  0.06123  0.24811  1.0000
  O   O1834     1.0  0.00000  0.13877  0.24811  1.0000
  O   O1835     1.0  0.86667  0.19456  0.28169  1.0000
  O   O1836     1.0  0.92790  0.13333  0.28169  1.0000
  Al  Al1225    1.0  0.86667  0.13333  0.56339  1.0000
  Al  Al1226    1.0  0.93333  0.06667  0.53737  1.0000
  Al  Al1227    1.0  0.80000  0.00000  0.52980  1.0000
  Al  Al1228    1.0  0.86667  0.13333  0.50378  1.0000
  Al  Al1229    1.0  0.80000  0.00000  0.42905  1.0000
  Al  Al1230    1.0  0.86667  0.13333  0.40302  1.0000
  Al  Al1231    1.0  0.93333  0.06667  0.59698  1.0000
  Al  Al1232    1.0  0.80000  0.00000  0.57095  1.0000
  Al  Al1233    1.0  0.93333  0.06667  0.49622  1.0000
  Al  Al1234    1.0  0.80000  0.00000  0.47020  1.0000
  Al  Al1235    1.0  0.86667  0.13333  0.46263  1.0000
  Al  Al1236    1.0  0.93333  0.06667  0.43661  1.0000
  O   O1837     1.0  0.87210  0.06667  0.51679  1.0000
  O   O1838     1.0  0.93877  0.13877  0.55038  1.0000
  O   O1839     1.0  0.99456  0.12790  0.51679  1.0000
  O   O1840     1.0  0.93333  0.00544  0.51679  1.0000
  O   O1841     1.0  0.80000  0.06123  0.55038  1.0000
  O   O1842     1.0  0.86123  0.00000  0.55038  1.0000
  O   O1843     1.0  0.80544  0.13333  0.58396  1.0000
  O   O1844     1.0  0.87210  0.00544  0.41604  1.0000
  O   O1845     1.0  0.92790  0.19456  0.58396  1.0000
  O   O1846     1.0  0.86667  0.07210  0.58396  1.0000
  O   O1847     1.0  0.93333  0.12790  0.41604  1.0000
  O   O1848     1.0  0.99456  0.06667  0.41604  1.0000
  O   O1849     1.0  0.93877  0.00000  0.44962  1.0000
  O   O1850     1.0  0.80544  0.07210  0.48321  1.0000
  O   O1851     1.0  0.86123  0.06123  0.44962  1.0000
  O   O1852     1.0  0.00000  0.13877  0.44962  1.0000
  O   O1853     1.0  0.86667  0.19456  0.48321  1.0000
  O   O1854     1.0  0.92790  0.13333  0.48321  1.0000
  Al  Al1237    1.0  0.86667  0.13333  0.76490  1.0000
  Al  Al1238    1.0  0.93333  0.06667  0.73888  1.0000
  Al  Al1239    1.0  0.80000  0.00000  0.73132  1.0000
  Al  Al1240    1.0  0.86667  0.13333  0.70529  1.0000
  Al  Al1241    1.0  0.80000  0.00000  0.63056  1.0000
  Al  Al1242    1.0  0.86667  0.13333  0.60454  1.0000
  Al  Al1243    1.0  0.93333  0.06667  0.79849  1.0000
  Al  Al1244    1.0  0.80000  0.00000  0.77246  1.0000
  Al  Al1245    1.0  0.93333  0.06667  0.69773  1.0000
  Al  Al1246    1.0  0.80000  0.00000  0.67171  1.0000
  Al  Al1247    1.0  0.86667  0.13333  0.66415  1.0000
  Al  Al1248    1.0  0.93333  0.06667  0.63812  1.0000
  O   O1855     1.0  0.87210  0.06667  0.71831  1.0000
  O   O1856     1.0  0.93877  0.13877  0.75189  1.0000
  O   O1857     1.0  0.99456  0.12790  0.71831  1.0000
  O   O1858     1.0  0.93333  0.00544  0.71831  1.0000
  O   O1859     1.0  0.80000  0.06123  0.75189  1.0000
  O   O1860     1.0  0.86123  0.00000  0.75189  1.0000
  O   O1861     1.0  0.80544  0.13333  0.78548  1.0000
  O   O1862     1.0  0.87210  0.00544  0.61755  1.0000
  O   O1863     1.0  0.92790  0.19456  0.78548  1.0000
  O   O1864     1.0  0.86667  0.07210  0.78548  1.0000
  O   O1865     1.0  0.93333  0.12790  0.61755  1.0000
  O   O1866     1.0  0.99456  0.06667  0.61755  1.0000
  O   O1867     1.0  0.93877  0.00000  0.65113  1.0000
  O   O1868     1.0  0.80544  0.07210  0.68472  1.0000
  O   O1869     1.0  0.86123  0.06123  0.65113  1.0000
  O   O1870     1.0  0.00000  0.13877  0.65113  1.0000
  O   O1871     1.0  0.86667  0.19456  0.68472  1.0000
  O   O1872     1.0  0.92790  0.13333  0.68472  1.0000
  Al  Al1249    1.0  0.86667  0.13333  0.96641  1.0000
  Al  Al1250    1.0  0.93333  0.06667  0.94039  1.0000
  Al  Al1251    1.0  0.80000  0.00000  0.93283  1.0000
  Al  Al1252    1.0  0.86667  0.13333  0.90681  1.0000
  Al  Al1253    1.0  0.80000  0.00000  0.83207  1.0000
  Al  Al1254    1.0  0.86667  0.13333  0.80605  1.0000
  Al  Al1255    1.0  0.93333  0.06667  1.00000  1.0000
  Al  Al1256    1.0  0.80000  0.00000  0.97398  1.0000
  Al  Al1257    1.0  0.93333  0.06667  0.89924  1.0000
  Al  Al1258    1.0  0.80000  0.00000  0.87322  1.0000
  Al  Al1259    1.0  0.86667  0.13333  0.86566  1.0000
  Al  Al1260    1.0  0.93333  0.06667  0.83963  1.0000
  O   O1873     1.0  0.87210  0.06667  0.91982  1.0000
  O   O1874     1.0  0.93877  0.13877  0.95340  1.0000
  O   O1875     1.0  0.99456  0.12790  0.91982  1.0000
  O   O1876     1.0  0.93333  0.00544  0.91982  1.0000
  O   O1877     1.0  0.80000  0.06123  0.95340  1.0000
  O   O1878     1.0  0.86123  0.00000  0.95340  1.0000
  O   O1879     1.0  0.80544  0.13333  0.98699  1.0000
  O   O1880     1.0  0.87210  0.00544  0.81906  1.0000
  O   O1881     1.0  0.92790  0.19456  0.98699  1.0000
  O   O1882     1.0  0.86667  0.07210  0.98699  1.0000
  O   O1883     1.0  0.93333  0.12790  0.81906  1.0000
  O   O1884     1.0  0.99456  0.06667  0.81906  1.0000
  O   O1885     1.0  0.93877  0.00000  0.85265  1.0000
  O   O1886     1.0  0.80544  0.07210  0.88623  1.0000
  O   O1887     1.0  0.86123  0.06123  0.85265  1.0000
  O   O1888     1.0  0.00000  0.13877  0.85265  1.0000
  O   O1889     1.0  0.86667  0.19456  0.88623  1.0000
  O   O1890     1.0  0.92790  0.13333  0.88623  1.0000
  Al  Al1261    1.0  0.86667  0.33333  0.16037  1.0000
  Al  Al1262    1.0  0.93333  0.26667  0.13434  1.0000
  Al  Al1263    1.0  0.80000  0.20000  0.12678  1.0000
  Al  Al1264    1.0  0.86667  0.33333  0.10076  1.0000
  Al  Al1265    1.0  0.80000  0.20000  0.02602  1.0000
  Al  Al1266    1.0  0.86667  0.33333  0.00000  1.0000
  Al  Al1267    1.0  0.93333  0.26667  0.19395  1.0000
  Al  Al1268    1.0  0.80000  0.20000  0.16793  1.0000
  Al  Al1269    1.0  0.93333  0.26667  0.09319  1.0000
  Al  Al1270    1.0  0.80000  0.20000  0.06717  1.0000
  Al  Al1271    1.0  0.86667  0.33333  0.05961  1.0000
  Al  Al1272    1.0  0.93333  0.26667  0.03359  1.0000
  O   O1891     1.0  0.87210  0.26667  0.11377  1.0000
  O   O1892     1.0  0.93877  0.33877  0.14735  1.0000
  O   O1893     1.0  0.99456  0.32790  0.11377  1.0000
  O   O1894     1.0  0.93333  0.20544  0.11377  1.0000
  O   O1895     1.0  0.80000  0.26123  0.14735  1.0000
  O   O1896     1.0  0.86123  0.20000  0.14735  1.0000
  O   O1897     1.0  0.80544  0.33333  0.18094  1.0000
  O   O1898     1.0  0.87210  0.20544  0.01301  1.0000
  O   O1899     1.0  0.92790  0.39456  0.18094  1.0000
  O   O1900     1.0  0.86667  0.27210  0.18094  1.0000
  O   O1901     1.0  0.93333  0.32790  0.01301  1.0000
  O   O1902     1.0  0.99456  0.26667  0.01301  1.0000
  O   O1903     1.0  0.93877  0.20000  0.04660  1.0000
  O   O1904     1.0  0.80544  0.27210  0.08018  1.0000
  O   O1905     1.0  0.86123  0.26123  0.04660  1.0000
  O   O1906     1.0  0.00000  0.33877  0.04660  1.0000
  O   O1907     1.0  0.86667  0.39456  0.08018  1.0000
  O   O1908     1.0  0.92790  0.33333  0.08018  1.0000
  Al  Al1273    1.0  0.86667  0.33333  0.36188  1.0000
  Al  Al1274    1.0  0.93333  0.26667  0.33585  1.0000
  Al  Al1275    1.0  0.80000  0.20000  0.32829  1.0000
  Al  Al1276    1.0  0.86667  0.33333  0.30227  1.0000
  Al  Al1277    1.0  0.80000  0.20000  0.22754  1.0000
  Al  Al1278    1.0  0.86667  0.33333  0.20151  1.0000
  Al  Al1279    1.0  0.93333  0.26667  0.39546  1.0000
  Al  Al1280    1.0  0.80000  0.20000  0.36944  1.0000
  Al  Al1281    1.0  0.93333  0.26667  0.29471  1.0000
  Al  Al1282    1.0  0.80000  0.20000  0.26868  1.0000
  Al  Al1283    1.0  0.86667  0.33333  0.26112  1.0000
  Al  Al1284    1.0  0.93333  0.26667  0.23510  1.0000
  O   O1909     1.0  0.87210  0.26667  0.31528  1.0000
  O   O1910     1.0  0.93877  0.33877  0.34887  1.0000
  O   O1911     1.0  0.99456  0.32790  0.31528  1.0000
  O   O1912     1.0  0.93333  0.20544  0.31528  1.0000
  O   O1913     1.0  0.80000  0.26123  0.34887  1.0000
  O   O1914     1.0  0.86123  0.20000  0.34887  1.0000
  O   O1915     1.0  0.80544  0.33333  0.38245  1.0000
  O   O1916     1.0  0.87210  0.20544  0.21452  1.0000
  O   O1917     1.0  0.92790  0.39456  0.38245  1.0000
  O   O1918     1.0  0.86667  0.27210  0.38245  1.0000
  O   O1919     1.0  0.93333  0.32790  0.21452  1.0000
  O   O1920     1.0  0.99456  0.26667  0.21452  1.0000
  O   O1921     1.0  0.93877  0.20000  0.24811  1.0000
  O   O1922     1.0  0.80544  0.27210  0.28169  1.0000
  O   O1923     1.0  0.86123  0.26123  0.24811  1.0000
  O   O1924     1.0  0.00000  0.33877  0.24811  1.0000
  O   O1925     1.0  0.86667  0.39456  0.28169  1.0000
  O   O1926     1.0  0.92790  0.33333  0.28169  1.0000
  Al  Al1285    1.0  0.86667  0.33333  0.56339  1.0000
  Al  Al1286    1.0  0.93333  0.26667  0.53737  1.0000
  Al  Al1287    1.0  0.80000  0.20000  0.52980  1.0000
  Al  Al1288    1.0  0.86667  0.33333  0.50378  1.0000
  Al  Al1289    1.0  0.80000  0.20000  0.42905  1.0000
  Al  Al1290    1.0  0.86667  0.33333  0.40302  1.0000
  Al  Al1291    1.0  0.93333  0.26667  0.59698  1.0000
  Al  Al1292    1.0  0.80000  0.20000  0.57095  1.0000
  Al  Al1293    1.0  0.93333  0.26667  0.49622  1.0000
  Al  Al1294    1.0  0.80000  0.20000  0.47020  1.0000
  Al  Al1295    1.0  0.86667  0.33333  0.46263  1.0000
  Al  Al1296    1.0  0.93333  0.26667  0.43661  1.0000
  O   O1927     1.0  0.87210  0.26667  0.51679  1.0000
  O   O1928     1.0  0.93877  0.33877  0.55038  1.0000
  O   O1929     1.0  0.99456  0.32790  0.51679  1.0000
  O   O1930     1.0  0.93333  0.20544  0.51679  1.0000
  O   O1931     1.0  0.80000  0.26123  0.55038  1.0000
  O   O1932     1.0  0.86123  0.20000  0.55038  1.0000
  O   O1933     1.0  0.80544  0.33333  0.58396  1.0000
  O   O1934     1.0  0.87210  0.20544  0.41604  1.0000
  O   O1935     1.0  0.92790  0.39456  0.58396  1.0000
  O   O1936     1.0  0.86667  0.27210  0.58396  1.0000
  O   O1937     1.0  0.93333  0.32790  0.41604  1.0000
  O   O1938     1.0  0.99456  0.26667  0.41604  1.0000
  O   O1939     1.0  0.93877  0.20000  0.44962  1.0000
  O   O1940     1.0  0.80544  0.27210  0.48321  1.0000
  O   O1941     1.0  0.86123  0.26123  0.44962  1.0000
  O   O1942     1.0  0.00000  0.33877  0.44962  1.0000
  O   O1943     1.0  0.86667  0.39456  0.48321  1.0000
  O   O1944     1.0  0.92790  0.33333  0.48321  1.0000
  Al  Al1297    1.0  0.86667  0.33333  0.76490  1.0000
  Al  Al1298    1.0  0.93333  0.26667  0.73888  1.0000
  Al  Al1299    1.0  0.80000  0.20000  0.73132  1.0000
  Al  Al1300    1.0  0.86667  0.33333  0.70529  1.0000
  Al  Al1301    1.0  0.80000  0.20000  0.63056  1.0000
  Al  Al1302    1.0  0.86667  0.33333  0.60454  1.0000
  Al  Al1303    1.0  0.93333  0.26667  0.79849  1.0000
  Al  Al1304    1.0  0.80000  0.20000  0.77246  1.0000
  Al  Al1305    1.0  0.93333  0.26667  0.69773  1.0000
  Al  Al1306    1.0  0.80000  0.20000  0.67171  1.0000
  Al  Al1307    1.0  0.86667  0.33333  0.66415  1.0000
  Al  Al1308    1.0  0.93333  0.26667  0.63812  1.0000
  O   O1945     1.0  0.87210  0.26667  0.71831  1.0000
  O   O1946     1.0  0.93877  0.33877  0.75189  1.0000
  O   O1947     1.0  0.99456  0.32790  0.71831  1.0000
  O   O1948     1.0  0.93333  0.20544  0.71831  1.0000
  O   O1949     1.0  0.80000  0.26123  0.75189  1.0000
  O   O1950     1.0  0.86123  0.20000  0.75189  1.0000
  O   O1951     1.0  0.80544  0.33333  0.78548  1.0000
  O   O1952     1.0  0.87210  0.20544  0.61755  1.0000
  O   O1953     1.0  0.92790  0.39456  0.78548  1.0000
  O   O1954     1.0  0.86667  0.27210  0.78548  1.0000
  O   O1955     1.0  0.93333  0.32790  0.61755  1.0000
  O   O1956     1.0  0.99456  0.26667  0.61755  1.0000
  O   O1957     1.0  0.93877  0.20000  0.65113  1.0000
  O   O1958     1.0  0.80544  0.27210  0.68472  1.0000
  O   O1959     1.0  0.86123  0.26123  0.65113  1.0000
  O   O1960     1.0  0.00000  0.33877  0.65113  1.0000
  O   O1961     1.0  0.86667  0.39456  0.68472  1.0000
  O   O1962     1.0  0.92790  0.33333  0.68472  1.0000
  Al  Al1309    1.0  0.86667  0.33333  0.96641  1.0000
  Al  Al1310    1.0  0.93333  0.26667  0.94039  1.0000
  Al  Al1311    1.0  0.80000  0.20000  0.93283  1.0000
  Al  Al1312    1.0  0.86667  0.33333  0.90681  1.0000
  Al  Al1313    1.0  0.80000  0.20000  0.83207  1.0000
  Al  Al1314    1.0  0.86667  0.33333  0.80605  1.0000
  Al  Al1315    1.0  0.93333  0.26667  1.00000  1.0000
  Al  Al1316    1.0  0.80000  0.20000  0.97398  1.0000
  Al  Al1317    1.0  0.93333  0.26667  0.89924  1.0000
  Al  Al1318    1.0  0.80000  0.20000  0.87322  1.0000
  Al  Al1319    1.0  0.86667  0.33333  0.86566  1.0000
  Al  Al1320    1.0  0.93333  0.26667  0.83963  1.0000
  O   O1963     1.0  0.87210  0.26667  0.91982  1.0000
  O   O1964     1.0  0.93877  0.33877  0.95340  1.0000
  O   O1965     1.0  0.99456  0.32790  0.91982  1.0000
  O   O1966     1.0  0.93333  0.20544  0.91982  1.0000
  O   O1967     1.0  0.80000  0.26123  0.95340  1.0000
  O   O1968     1.0  0.86123  0.20000  0.95340  1.0000
  O   O1969     1.0  0.80544  0.33333  0.98699  1.0000
  O   O1970     1.0  0.87210  0.20544  0.81906  1.0000
  O   O1971     1.0  0.92790  0.39456  0.98699  1.0000
  O   O1972     1.0  0.86667  0.27210  0.98699  1.0000
  O   O1973     1.0  0.93333  0.32790  0.81906  1.0000
  O   O1974     1.0  0.99456  0.26667  0.81906  1.0000
  O   O1975     1.0  0.93877  0.20000  0.85265  1.0000
  O   O1976     1.0  0.80544  0.27210  0.88623  1.0000
  O   O1977     1.0  0.86123  0.26123  0.85265  1.0000
  O   O1978     1.0  0.00000  0.33877  0.85265  1.0000
  O   O1979     1.0  0.86667  0.39456  0.88623  1.0000
  O   O1980     1.0  0.92790  0.33333  0.88623  1.0000
  Al  Al1321    1.0  0.86667  0.53333  0.16037  1.0000
  Al  Al1322    1.0  0.93333  0.46667  0.13434  1.0000
  Al  Al1323    1.0  0.80000  0.40000  0.12678  1.0000
  Al  Al1324    1.0  0.86667  0.53333  0.10076  1.0000
  Al  Al1325    1.0  0.80000  0.40000  0.02602  1.0000
  Al  Al1326    1.0  0.86667  0.53333  0.00000  1.0000
  Al  Al1327    1.0  0.93333  0.46667  0.19395  1.0000
  Al  Al1328    1.0  0.80000  0.40000  0.16793  1.0000
  Al  Al1329    1.0  0.93333  0.46667  0.09319  1.0000
  Al  Al1330    1.0  0.80000  0.40000  0.06717  1.0000
  Al  Al1331    1.0  0.86667  0.53333  0.05961  1.0000
  Al  Al1332    1.0  0.93333  0.46667  0.03359  1.0000
  O   O1981     1.0  0.87210  0.46667  0.11377  1.0000
  O   O1982     1.0  0.93877  0.53877  0.14735  1.0000
  O   O1983     1.0  0.99456  0.52790  0.11377  1.0000
  O   O1984     1.0  0.93333  0.40544  0.11377  1.0000
  O   O1985     1.0  0.80000  0.46123  0.14735  1.0000
  O   O1986     1.0  0.86123  0.40000  0.14735  1.0000
  O   O1987     1.0  0.80544  0.53333  0.18094  1.0000
  O   O1988     1.0  0.87210  0.40544  0.01301  1.0000
  O   O1989     1.0  0.92790  0.59456  0.18094  1.0000
  O   O1990     1.0  0.86667  0.47210  0.18094  1.0000
  O   O1991     1.0  0.93333  0.52790  0.01301  1.0000
  O   O1992     1.0  0.99456  0.46667  0.01301  1.0000
  O   O1993     1.0  0.93877  0.40000  0.04660  1.0000
  O   O1994     1.0  0.80544  0.47210  0.08018  1.0000
  O   O1995     1.0  0.86123  0.46123  0.04660  1.0000
  O   O1996     1.0  0.00000  0.53877  0.04660  1.0000
  O   O1997     1.0  0.86667  0.59456  0.08018  1.0000
  O   O1998     1.0  0.92790  0.53333  0.08018  1.0000
  Al  Al1333    1.0  0.86667  0.53333  0.36188  1.0000
  Al  Al1334    1.0  0.93333  0.46667  0.33585  1.0000
  Al  Al1335    1.0  0.80000  0.40000  0.32829  1.0000
  Al  Al1336    1.0  0.86667  0.53333  0.30227  1.0000
  Al  Al1337    1.0  0.80000  0.40000  0.22754  1.0000
  Al  Al1338    1.0  0.86667  0.53333  0.20151  1.0000
  Al  Al1339    1.0  0.93333  0.46667  0.39546  1.0000
  Al  Al1340    1.0  0.80000  0.40000  0.36944  1.0000
  Al  Al1341    1.0  0.93333  0.46667  0.29471  1.0000
  Al  Al1342    1.0  0.80000  0.40000  0.26868  1.0000
  Al  Al1343    1.0  0.86667  0.53333  0.26112  1.0000
  Al  Al1344    1.0  0.93333  0.46667  0.23510  1.0000
  O   O1999     1.0  0.87210  0.46667  0.31528  1.0000
  O   O2000     1.0  0.93877  0.53877  0.34887  1.0000
  O   O2001     1.0  0.99456  0.52790  0.31528  1.0000
  O   O2002     1.0  0.93333  0.40544  0.31528  1.0000
  O   O2003     1.0  0.80000  0.46123  0.34887  1.0000
  O   O2004     1.0  0.86123  0.40000  0.34887  1.0000
  O   O2005     1.0  0.80544  0.53333  0.38245  1.0000
  O   O2006     1.0  0.87210  0.40544  0.21452  1.0000
  O   O2007     1.0  0.92790  0.59456  0.38245  1.0000
  O   O2008     1.0  0.86667  0.47210  0.38245  1.0000
  O   O2009     1.0  0.93333  0.52790  0.21452  1.0000
  O   O2010     1.0  0.99456  0.46667  0.21452  1.0000
  O   O2011     1.0  0.93877  0.40000  0.24811  1.0000
  O   O2012     1.0  0.80544  0.47210  0.28169  1.0000
  O   O2013     1.0  0.86123  0.46123  0.24811  1.0000
  O   O2014     1.0  0.00000  0.53877  0.24811  1.0000
  O   O2015     1.0  0.86667  0.59456  0.28169  1.0000
  O   O2016     1.0  0.92790  0.53333  0.28169  1.0000
  Al  Al1345    1.0  0.86667  0.53333  0.56339  1.0000
  Al  Al1346    1.0  0.93333  0.46667  0.53737  1.0000
  Al  Al1347    1.0  0.80000  0.40000  0.52980  1.0000
  Al  Al1348    1.0  0.86667  0.53333  0.50378  1.0000
  Al  Al1349    1.0  0.80000  0.40000  0.42905  1.0000
  Al  Al1350    1.0  0.86667  0.53333  0.40302  1.0000
  Al  Al1351    1.0  0.93333  0.46667  0.59698  1.0000
  Al  Al1352    1.0  0.80000  0.40000  0.57095  1.0000
  Al  Al1353    1.0  0.93333  0.46667  0.49622  1.0000
  Al  Al1354    1.0  0.80000  0.40000  0.47020  1.0000
  Al  Al1355    1.0  0.86667  0.53333  0.46263  1.0000
  Al  Al1356    1.0  0.93333  0.46667  0.43661  1.0000
  O   O2017     1.0  0.87210  0.46667  0.51679  1.0000
  O   O2018     1.0  0.93877  0.53877  0.55038  1.0000
  O   O2019     1.0  0.99456  0.52790  0.51679  1.0000
  O   O2020     1.0  0.93333  0.40544  0.51679  1.0000
  O   O2021     1.0  0.80000  0.46123  0.55038  1.0000
  O   O2022     1.0  0.86123  0.40000  0.55038  1.0000
  O   O2023     1.0  0.80544  0.53333  0.58396  1.0000
  O   O2024     1.0  0.87210  0.40544  0.41604  1.0000
  O   O2025     1.0  0.92790  0.59456  0.58396  1.0000
  O   O2026     1.0  0.86667  0.47210  0.58396  1.0000
  O   O2027     1.0  0.93333  0.52790  0.41604  1.0000
  O   O2028     1.0  0.99456  0.46667  0.41604  1.0000
  O   O2029     1.0  0.93877  0.40000  0.44962  1.0000
  O   O2030     1.0  0.80544  0.47210  0.48321  1.0000
  O   O2031     1.0  0.86123  0.46123  0.44962  1.0000
  O   O2032     1.0  0.00000  0.53877  0.44962  1.0000
  O   O2033     1.0  0.86667  0.59456  0.48321  1.0000
  O   O2034     1.0  0.92790  0.53333  0.48321  1.0000
  Al  Al1357    1.0  0.86667  0.53333  0.76490  1.0000
  Al  Al1358    1.0  0.93333  0.46667  0.73888  1.0000
  Al  Al1359    1.0  0.80000  0.40000  0.73132  1.0000
  Al  Al1360    1.0  0.86667  0.53333  0.70529  1.0000
  Al  Al1361    1.0  0.80000  0.40000  0.63056  1.0000
  Al  Al1362    1.0  0.86667  0.53333  0.60454  1.0000
  Al  Al1363    1.0  0.93333  0.46667  0.79849  1.0000
  Al  Al1364    1.0  0.80000  0.40000  0.77246  1.0000
  Al  Al1365    1.0  0.93333  0.46667  0.69773  1.0000
  Al  Al1366    1.0  0.80000  0.40000  0.67171  1.0000
  Al  Al1367    1.0  0.86667  0.53333  0.66415  1.0000
  Al  Al1368    1.0  0.93333  0.46667  0.63812  1.0000
  O   O2035     1.0  0.87210  0.46667  0.71831  1.0000
  O   O2036     1.0  0.93877  0.53877  0.75189  1.0000
  O   O2037     1.0  0.99456  0.52790  0.71831  1.0000
  O   O2038     1.0  0.93333  0.40544  0.71831  1.0000
  O   O2039     1.0  0.80000  0.46123  0.75189  1.0000
  O   O2040     1.0  0.86123  0.40000  0.75189  1.0000
  O   O2041     1.0  0.80544  0.53333  0.78548  1.0000
  O   O2042     1.0  0.87210  0.40544  0.61755  1.0000
  O   O2043     1.0  0.92790  0.59456  0.78548  1.0000
  O   O2044     1.0  0.86667  0.47210  0.78548  1.0000
  O   O2045     1.0  0.93333  0.52790  0.61755  1.0000
  O   O2046     1.0  0.99456  0.46667  0.61755  1.0000
  O   O2047     1.0  0.93877  0.40000  0.65113  1.0000
  O   O2048     1.0  0.80544  0.47210  0.68472  1.0000
  O   O2049     1.0  0.86123  0.46123  0.65113  1.0000
  O   O2050     1.0  0.00000  0.53877  0.65113  1.0000
  O   O2051     1.0  0.86667  0.59456  0.68472  1.0000
  O   O2052     1.0  0.92790  0.53333  0.68472  1.0000
  Al  Al1369    1.0  0.86667  0.53333  0.96641  1.0000
  Al  Al1370    1.0  0.93333  0.46667  0.94039  1.0000
  Al  Al1371    1.0  0.80000  0.40000  0.93283  1.0000
  Al  Al1372    1.0  0.86667  0.53333  0.90681  1.0000
  Al  Al1373    1.0  0.80000  0.40000  0.83207  1.0000
  Al  Al1374    1.0  0.86667  0.53333  0.80605  1.0000
  Al  Al1375    1.0  0.93333  0.46667  1.00000  1.0000
  Al  Al1376    1.0  0.80000  0.40000  0.97398  1.0000
  Al  Al1377    1.0  0.93333  0.46667  0.89924  1.0000
  Al  Al1378    1.0  0.80000  0.40000  0.87322  1.0000
  Al  Al1379    1.0  0.86667  0.53333  0.86566  1.0000
  Al  Al1380    1.0  0.93333  0.46667  0.83963  1.0000
  O   O2053     1.0  0.87210  0.46667  0.91982  1.0000
  O   O2054     1.0  0.93877  0.53877  0.95340  1.0000
  O   O2055     1.0  0.99456  0.52790  0.91982  1.0000
  O   O2056     1.0  0.93333  0.40544  0.91982  1.0000
  O   O2057     1.0  0.80000  0.46123  0.95340  1.0000
  O   O2058     1.0  0.86123  0.40000  0.95340  1.0000
  O   O2059     1.0  0.80544  0.53333  0.98699  1.0000
  O   O2060     1.0  0.87210  0.40544  0.81906  1.0000
  O   O2061     1.0  0.92790  0.59456  0.98699  1.0000
  O   O2062     1.0  0.86667  0.47210  0.98699  1.0000
  O   O2063     1.0  0.93333  0.52790  0.81906  1.0000
  O   O2064     1.0  0.99456  0.46667  0.81906  1.0000
  O   O2065     1.0  0.93877  0.40000  0.85265  1.0000
  O   O2066     1.0  0.80544  0.47210  0.88623  1.0000
  O   O2067     1.0  0.86123  0.46123  0.85265  1.0000
  O   O2068     1.0  0.00000  0.53877  0.85265  1.0000
  O   O2069     1.0  0.86667  0.59456  0.88623  1.0000
  O   O2070     1.0  0.92790  0.53333  0.88623  1.0000
  Al  Al1381    1.0  0.86667  0.73333  0.16037  1.0000
  Al  Al1382    1.0  0.93333  0.66667  0.13434  1.0000
  Al  Al1383    1.0  0.80000  0.60000  0.12678  1.0000
  Al  Al1384    1.0  0.86667  0.73333  0.10076  1.0000
  Al  Al1385    1.0  0.80000  0.60000  0.02602  1.0000
  Al  Al1386    1.0  0.86667  0.73333  0.00000  1.0000
  Al  Al1387    1.0  0.93333  0.66667  0.19395  1.0000
  Al  Al1388    1.0  0.80000  0.60000  0.16793  1.0000
  Al  Al1389    1.0  0.93333  0.66667  0.09319  1.0000
  Al  Al1390    1.0  0.80000  0.60000  0.06717  1.0000
  Al  Al1391    1.0  0.86667  0.73333  0.05961  1.0000
  Al  Al1392    1.0  0.93333  0.66667  0.03359  1.0000
  O   O2071     1.0  0.87210  0.66667  0.11377  1.0000
  O   O2072     1.0  0.93877  0.73877  0.14735  1.0000
  O   O2073     1.0  0.99456  0.72790  0.11377  1.0000
  O   O2074     1.0  0.93333  0.60544  0.11377  1.0000
  O   O2075     1.0  0.80000  0.66123  0.14735  1.0000
  O   O2076     1.0  0.86123  0.60000  0.14735  1.0000
  O   O2077     1.0  0.80544  0.73333  0.18094  1.0000
  O   O2078     1.0  0.87210  0.60544  0.01301  1.0000
  O   O2079     1.0  0.92790  0.79456  0.18094  1.0000
  O   O2080     1.0  0.86667  0.67210  0.18094  1.0000
  O   O2081     1.0  0.93333  0.72790  0.01301  1.0000
  O   O2082     1.0  0.99456  0.66667  0.01301  1.0000
  O   O2083     1.0  0.93877  0.60000  0.04660  1.0000
  O   O2084     1.0  0.80544  0.67210  0.08018  1.0000
  O   O2085     1.0  0.86123  0.66123  0.04660  1.0000
  O   O2086     1.0  0.00000  0.73877  0.04660  1.0000
  O   O2087     1.0  0.86667  0.79456  0.08018  1.0000
  O   O2088     1.0  0.92790  0.73333  0.08018  1.0000
  Al  Al1393    1.0  0.86667  0.73333  0.36188  1.0000
  Al  Al1394    1.0  0.93333  0.66667  0.33585  1.0000
  Al  Al1395    1.0  0.80000  0.60000  0.32829  1.0000
  Al  Al1396    1.0  0.86667  0.73333  0.30227  1.0000
  Al  Al1397    1.0  0.80000  0.60000  0.22754  1.0000
  Al  Al1398    1.0  0.86667  0.73333  0.20151  1.0000
  Al  Al1399    1.0  0.93333  0.66667  0.39546  1.0000
  Al  Al1400    1.0  0.80000  0.60000  0.36944  1.0000
  Al  Al1401    1.0  0.93333  0.66667  0.29471  1.0000
  Al  Al1402    1.0  0.80000  0.60000  0.26868  1.0000
  Al  Al1403    1.0  0.86667  0.73333  0.26112  1.0000
  Al  Al1404    1.0  0.93333  0.66667  0.23510  1.0000
  O   O2089     1.0  0.87210  0.66667  0.31528  1.0000
  O   O2090     1.0  0.93877  0.73877  0.34887  1.0000
  O   O2091     1.0  0.99456  0.72790  0.31528  1.0000
  O   O2092     1.0  0.93333  0.60544  0.31528  1.0000
  O   O2093     1.0  0.80000  0.66123  0.34887  1.0000
  O   O2094     1.0  0.86123  0.60000  0.34887  1.0000
  O   O2095     1.0  0.80544  0.73333  0.38245  1.0000
  O   O2096     1.0  0.87210  0.60544  0.21452  1.0000
  O   O2097     1.0  0.92790  0.79456  0.38245  1.0000
  O   O2098     1.0  0.86667  0.67210  0.38245  1.0000
  O   O2099     1.0  0.93333  0.72790  0.21452  1.0000
  O   O2100     1.0  0.99456  0.66667  0.21452  1.0000
  O   O2101     1.0  0.93877  0.60000  0.24811  1.0000
  O   O2102     1.0  0.80544  0.67210  0.28169  1.0000
  O   O2103     1.0  0.86123  0.66123  0.24811  1.0000
  O   O2104     1.0  0.00000  0.73877  0.24811  1.0000
  O   O2105     1.0  0.86667  0.79456  0.28169  1.0000
  O   O2106     1.0  0.92790  0.73333  0.28169  1.0000
  Al  Al1405    1.0  0.86667  0.73333  0.56339  1.0000
  Al  Al1406    1.0  0.93333  0.66667  0.53737  1.0000
  Al  Al1407    1.0  0.80000  0.60000  0.52980  1.0000
  Al  Al1408    1.0  0.86667  0.73333  0.50378  1.0000
  Al  Al1409    1.0  0.80000  0.60000  0.42905  1.0000
  Al  Al1410    1.0  0.86667  0.73333  0.40302  1.0000
  Al  Al1411    1.0  0.93333  0.66667  0.59698  1.0000
  Al  Al1412    1.0  0.80000  0.60000  0.57095  1.0000
  Al  Al1413    1.0  0.93333  0.66667  0.49622  1.0000
  Al  Al1414    1.0  0.80000  0.60000  0.47020  1.0000
  Al  Al1415    1.0  0.86667  0.73333  0.46263  1.0000
  Al  Al1416    1.0  0.93333  0.66667  0.43661  1.0000
  O   O2107     1.0  0.87210  0.66667  0.51679  1.0000
  O   O2108     1.0  0.93877  0.73877  0.55038  1.0000
  O   O2109     1.0  0.99456  0.72790  0.51679  1.0000
  O   O2110     1.0  0.93333  0.60544  0.51679  1.0000
  O   O2111     1.0  0.80000  0.66123  0.55038  1.0000
  O   O2112     1.0  0.86123  0.60000  0.55038  1.0000
  O   O2113     1.0  0.80544  0.73333  0.58396  1.0000
  O   O2114     1.0  0.87210  0.60544  0.41604  1.0000
  O   O2115     1.0  0.92790  0.79456  0.58396  1.0000
  O   O2116     1.0  0.86667  0.67210  0.58396  1.0000
  O   O2117     1.0  0.93333  0.72790  0.41604  1.0000
  O   O2118     1.0  0.99456  0.66667  0.41604  1.0000
  O   O2119     1.0  0.93877  0.60000  0.44962  1.0000
  O   O2120     1.0  0.80544  0.67210  0.48321  1.0000
  O   O2121     1.0  0.86123  0.66123  0.44962  1.0000
  O   O2122     1.0  0.00000  0.73877  0.44962  1.0000
  O   O2123     1.0  0.86667  0.79456  0.48321  1.0000
  O   O2124     1.0  0.92790  0.73333  0.48321  1.0000
  Al  Al1417    1.0  0.86667  0.73333  0.76490  1.0000
  Al  Al1418    1.0  0.93333  0.66667  0.73888  1.0000
  Al  Al1419    1.0  0.80000  0.60000  0.73132  1.0000
  Al  Al1420    1.0  0.86667  0.73333  0.70529  1.0000
  Al  Al1421    1.0  0.80000  0.60000  0.63056  1.0000
  Al  Al1422    1.0  0.86667  0.73333  0.60454  1.0000
  Al  Al1423    1.0  0.93333  0.66667  0.79849  1.0000
  Al  Al1424    1.0  0.80000  0.60000  0.77246  1.0000
  Al  Al1425    1.0  0.93333  0.66667  0.69773  1.0000
  Al  Al1426    1.0  0.80000  0.60000  0.67171  1.0000
  Al  Al1427    1.0  0.86667  0.73333  0.66415  1.0000
  Al  Al1428    1.0  0.93333  0.66667  0.63812  1.0000
  O   O2125     1.0  0.87210  0.66667  0.71831  1.0000
  O   O2126     1.0  0.93877  0.73877  0.75189  1.0000
  O   O2127     1.0  0.99456  0.72790  0.71831  1.0000
  O   O2128     1.0  0.93333  0.60544  0.71831  1.0000
  O   O2129     1.0  0.80000  0.66123  0.75189  1.0000
  O   O2130     1.0  0.86123  0.60000  0.75189  1.0000
  O   O2131     1.0  0.80544  0.73333  0.78548  1.0000
  O   O2132     1.0  0.87210  0.60544  0.61755  1.0000
  O   O2133     1.0  0.92790  0.79456  0.78548  1.0000
  O   O2134     1.0  0.86667  0.67210  0.78548  1.0000
  O   O2135     1.0  0.93333  0.72790  0.61755  1.0000
  O   O2136     1.0  0.99456  0.66667  0.61755  1.0000
  O   O2137     1.0  0.93877  0.60000  0.65113  1.0000
  O   O2138     1.0  0.80544  0.67210  0.68472  1.0000
  O   O2139     1.0  0.86123  0.66123  0.65113  1.0000
  O   O2140     1.0  0.00000  0.73877  0.65113  1.0000
  O   O2141     1.0  0.86667  0.79456  0.68472  1.0000
  O   O2142     1.0  0.92790  0.73333  0.68472  1.0000
  Al  Al1429    1.0  0.86667  0.73333  0.96641  1.0000
  Al  Al1430    1.0  0.93333  0.66667  0.94039  1.0000
  Al  Al1431    1.0  0.80000  0.60000  0.93283  1.0000
  Al  Al1432    1.0  0.86667  0.73333  0.90681  1.0000
  Al  Al1433    1.0  0.80000  0.60000  0.83207  1.0000
  Al  Al1434    1.0  0.86667  0.73333  0.80605  1.0000
  Al  Al1435    1.0  0.93333  0.66667  1.00000  1.0000
  Al  Al1436    1.0  0.80000  0.60000  0.97398  1.0000
  Al  Al1437    1.0  0.93333  0.66667  0.89924  1.0000
  Al  Al1438    1.0  0.80000  0.60000  0.87322  1.0000
  Al  Al1439    1.0  0.86667  0.73333  0.86566  1.0000
  Al  Al1440    1.0  0.93333  0.66667  0.83963  1.0000
  O   O2143     1.0  0.87210  0.66667  0.91982  1.0000
  O   O2144     1.0  0.93877  0.73877  0.95340  1.0000
  O   O2145     1.0  0.99456  0.72790  0.91982  1.0000
  O   O2146     1.0  0.93333  0.60544  0.91982  1.0000
  O   O2147     1.0  0.80000  0.66123  0.95340  1.0000
  O   O2148     1.0  0.86123  0.60000  0.95340  1.0000
  O   O2149     1.0  0.80544  0.73333  0.98699  1.0000
  O   O2150     1.0  0.87210  0.60544  0.81906  1.0000
  O   O2151     1.0  0.92790  0.79456  0.98699  1.0000
  O   O2152     1.0  0.86667  0.67210  0.98699  1.0000
  O   O2153     1.0  0.93333  0.72790  0.81906  1.0000
  O   O2154     1.0  0.99456  0.66667  0.81906  1.0000
  O   O2155     1.0  0.93877  0.60000  0.85265  1.0000
  O   O2156     1.0  0.80544  0.67210  0.88623  1.0000
  O   O2157     1.0  0.86123  0.66123  0.85265  1.0000
  O   O2158     1.0  0.00000  0.73877  0.85265  1.0000
  O   O2159     1.0  0.86667  0.79456  0.88623  1.0000
  O   O2160     1.0  0.92790  0.73333  0.88623  1.0000
  Al  Al1441    1.0  0.86667  0.93333  0.16037  1.0000
  Al  Al1442    1.0  0.93333  0.86667  0.13434  1.0000
  Al  Al1443    1.0  0.80000  0.80000  0.12678  1.0000
  Al  Al1444    1.0  0.86667  0.93333  0.10076  1.0000
  Al  Al1445    1.0  0.80000  0.80000  0.02602  1.0000
  Al  Al1446    1.0  0.86667  0.93333  0.00000  1.0000
  Al  Al1447    1.0  0.93333  0.86667  0.19395  1.0000
  Al  Al1448    1.0  0.80000  0.80000  0.16793  1.0000
  Al  Al1449    1.0  0.93333  0.86667  0.09319  1.0000
  Al  Al1450    1.0  0.80000  0.80000  0.06717  1.0000
  Al  Al1451    1.0  0.86667  0.93333  0.05961  1.0000
  Al  Al1452    1.0  0.93333  0.86667  0.03359  1.0000
  O   O2161     1.0  0.87210  0.86667  0.11377  1.0000
  O   O2162     1.0  0.93877  0.93877  0.14735  1.0000
  O   O2163     1.0  0.99456  0.92790  0.11377  1.0000
  O   O2164     1.0  0.93333  0.80544  0.11377  1.0000
  O   O2165     1.0  0.80000  0.86123  0.14735  1.0000
  O   O2166     1.0  0.86123  0.80000  0.14735  1.0000
  O   O2167     1.0  0.80544  0.93333  0.18094  1.0000
  O   O2168     1.0  0.87210  0.80544  0.01301  1.0000
  O   O2169     1.0  0.92790  0.99456  0.18094  1.0000
  O   O2170     1.0  0.86667  0.87210  0.18094  1.0000
  O   O2171     1.0  0.93333  0.92790  0.01301  1.0000
  O   O2172     1.0  0.99456  0.86667  0.01301  1.0000
  O   O2173     1.0  0.93877  0.80000  0.04660  1.0000
  O   O2174     1.0  0.80544  0.87210  0.08018  1.0000
  O   O2175     1.0  0.86123  0.86123  0.04660  1.0000
  O   O2176     1.0  0.00000  0.93877  0.04660  1.0000
  O   O2177     1.0  0.86667  0.99456  0.08018  1.0000
  O   O2178     1.0  0.92790  0.93333  0.08018  1.0000
  Al  Al1453    1.0  0.86667  0.93333  0.36188  1.0000
  Al  Al1454    1.0  0.93333  0.86667  0.33585  1.0000
  Al  Al1455    1.0  0.80000  0.80000  0.32829  1.0000
  Al  Al1456    1.0  0.86667  0.93333  0.30227  1.0000
  Al  Al1457    1.0  0.80000  0.80000  0.22754  1.0000
  Al  Al1458    1.0  0.86667  0.93333  0.20151  1.0000
  Al  Al1459    1.0  0.93333  0.86667  0.39546  1.0000
  Al  Al1460    1.0  0.80000  0.80000  0.36944  1.0000
  Al  Al1461    1.0  0.93333  0.86667  0.29471  1.0000
  Al  Al1462    1.0  0.80000  0.80000  0.26868  1.0000
  Al  Al1463    1.0  0.86667  0.93333  0.26112  1.0000
  Al  Al1464    1.0  0.93333  0.86667  0.23510  1.0000
  O   O2179     1.0  0.87210  0.86667  0.31528  1.0000
  O   O2180     1.0  0.93877  0.93877  0.34887  1.0000
  O   O2181     1.0  0.99456  0.92790  0.31528  1.0000
  O   O2182     1.0  0.93333  0.80544  0.31528  1.0000
  O   O2183     1.0  0.80000  0.86123  0.34887  1.0000
  O   O2184     1.0  0.86123  0.80000  0.34887  1.0000
  O   O2185     1.0  0.80544  0.93333  0.38245  1.0000
  O   O2186     1.0  0.87210  0.80544  0.21452  1.0000
  O   O2187     1.0  0.92790  0.99456  0.38245  1.0000
  O   O2188     1.0  0.86667  0.87210  0.38245  1.0000
  O   O2189     1.0  0.93333  0.92790  0.21452  1.0000
  O   O2190     1.0  0.99456  0.86667  0.21452  1.0000
  O   O2191     1.0  0.93877  0.80000  0.24811  1.0000
  O   O2192     1.0  0.80544  0.87210  0.28169  1.0000
  O   O2193     1.0  0.86123  0.86123  0.24811  1.0000
  O   O2194     1.0  0.00000  0.93877  0.24811  1.0000
  O   O2195     1.0  0.86667  0.99456  0.28169  1.0000
  O   O2196     1.0  0.92790  0.93333  0.28169  1.0000
  Al  Al1465    1.0  0.86667  0.93333  0.56339  1.0000
  Al  Al1466    1.0  0.93333  0.86667  0.53737  1.0000
  Al  Al1467    1.0  0.80000  0.80000  0.52980  1.0000
  Al  Al1468    1.0  0.86667  0.93333  0.50378  1.0000
  Al  Al1469    1.0  0.80000  0.80000  0.42905  1.0000
  Al  Al1470    1.0  0.86667  0.93333  0.40302  1.0000
  Al  Al1471    1.0  0.93333  0.86667  0.59698  1.0000
  Al  Al1472    1.0  0.80000  0.80000  0.57095  1.0000
  Al  Al1473    1.0  0.93333  0.86667  0.49622  1.0000
  Al  Al1474    1.0  0.80000  0.80000  0.47020  1.0000
  Al  Al1475    1.0  0.86667  0.93333  0.46263  1.0000
  Al  Al1476    1.0  0.93333  0.86667  0.43661  1.0000
  O   O2197     1.0  0.87210  0.86667  0.51679  1.0000
  O   O2198     1.0  0.93877  0.93877  0.55038  1.0000
  O   O2199     1.0  0.99456  0.92790  0.51679  1.0000
  O   O2200     1.0  0.93333  0.80544  0.51679  1.0000
  O   O2201     1.0  0.80000  0.86123  0.55038  1.0000
  O   O2202     1.0  0.86123  0.80000  0.55038  1.0000
  O   O2203     1.0  0.80544  0.93333  0.58396  1.0000
  O   O2204     1.0  0.87210  0.80544  0.41604  1.0000
  O   O2205     1.0  0.92790  0.99456  0.58396  1.0000
  O   O2206     1.0  0.86667  0.87210  0.58396  1.0000
  O   O2207     1.0  0.93333  0.92790  0.41604  1.0000
  O   O2208     1.0  0.99456  0.86667  0.41604  1.0000
  O   O2209     1.0  0.93877  0.80000  0.44962  1.0000
  O   O2210     1.0  0.80544  0.87210  0.48321  1.0000
  O   O2211     1.0  0.86123  0.86123  0.44962  1.0000
  O   O2212     1.0  0.00000  0.93877  0.44962  1.0000
  O   O2213     1.0  0.86667  0.99456  0.48321  1.0000
  O   O2214     1.0  0.92790  0.93333  0.48321  1.0000
  Al  Al1477    1.0  0.86667  0.93333  0.76490  1.0000
  Al  Al1478    1.0  0.93333  0.86667  0.73888  1.0000
  Al  Al1479    1.0  0.80000  0.80000  0.73132  1.0000
  Al  Al1480    1.0  0.86667  0.93333  0.70529  1.0000
  Al  Al1481    1.0  0.80000  0.80000  0.63056  1.0000
  Al  Al1482    1.0  0.86667  0.93333  0.60454  1.0000
  Al  Al1483    1.0  0.93333  0.86667  0.79849  1.0000
  Al  Al1484    1.0  0.80000  0.80000  0.77246  1.0000
  Al  Al1485    1.0  0.93333  0.86667  0.69773  1.0000
  Al  Al1486    1.0  0.80000  0.80000  0.67171  1.0000
  Al  Al1487    1.0  0.86667  0.93333  0.66415  1.0000
  Al  Al1488    1.0  0.93333  0.86667  0.63812  1.0000
  O   O2215     1.0  0.87210  0.86667  0.71831  1.0000
  O   O2216     1.0  0.93877  0.93877  0.75189  1.0000
  O   O2217     1.0  0.99456  0.92790  0.71831  1.0000
  O   O2218     1.0  0.93333  0.80544  0.71831  1.0000
  O   O2219     1.0  0.80000  0.86123  0.75189  1.0000
  O   O2220     1.0  0.86123  0.80000  0.75189  1.0000
  O   O2221     1.0  0.80544  0.93333  0.78548  1.0000
  O   O2222     1.0  0.87210  0.80544  0.61755  1.0000
  O   O2223     1.0  0.92790  0.99456  0.78548  1.0000
  O   O2224     1.0  0.86667  0.87210  0.78548  1.0000
  O   O2225     1.0  0.93333  0.92790  0.61755  1.0000
  O   O2226     1.0  0.99456  0.86667  0.61755  1.0000
  O   O2227     1.0  0.93877  0.80000  0.65113  1.0000
  O   O2228     1.0  0.80544  0.87210  0.68472  1.0000
  O   O2229     1.0  0.86123  0.86123  0.65113  1.0000
  O   O2230     1.0  0.00000  0.93877  0.65113  1.0000
  O   O2231     1.0  0.86667  0.99456  0.68472  1.0000
  O   O2232     1.0  0.92790  0.93333  0.68472  1.0000
  Al  Al1489    1.0  0.86667  0.93333  0.96641  1.0000
  Al  Al1490    1.0  0.93333  0.86667  0.94039  1.0000
  Al  Al1491    1.0  0.80000  0.80000  0.93283  1.0000
  Al  Al1492    1.0  0.86667  0.93333  0.90681  1.0000
  Al  Al1493    1.0  0.80000  0.80000  0.83207  1.0000
  Al  Al1494    1.0  0.86667  0.93333  0.80605  1.0000
  Al  Al1495    1.0  0.93333  0.86667  1.00000  1.0000
  Al  Al1496    1.0  0.80000  0.80000  0.97398  1.0000
  Al  Al1497    1.0  0.93333  0.86667  0.89924  1.0000
  Al  Al1498    1.0  0.80000  0.80000  0.87322  1.0000
  Al  Al1499    1.0  0.86667  0.93333  0.86566  1.0000
  Al  Al1500    1.0  0.93333  0.86667  0.83963  1.0000
  O   O2233     1.0  0.87210  0.86667  0.91982  1.0000
  O   O2234     1.0  0.93877  0.93877  0.95340  1.0000
  O   O2235     1.0  0.99456  0.92790  0.91982  1.0000
  O   O2236     1.0  0.93333  0.80544  0.91982  1.0000
  O   O2237     1.0  0.80000  0.86123  0.95340  1.0000
  O   O2238     1.0  0.86123  0.80000  0.95340  1.0000
  O   O2239     1.0  0.80544  0.93333  0.98699  1.0000
  O   O2240     1.0  0.87210  0.80544  0.81906  1.0000
  O   O2241     1.0  0.92790  0.99456  0.98699  1.0000
  O   O2242     1.0  0.86667  0.87210  0.98699  1.0000
  O   O2243     1.0  0.93333  0.92790  0.81906  1.0000
  O   O2244     1.0  0.99456  0.86667  0.81906  1.0000
  O   O2245     1.0  0.93877  0.80000  0.85265  1.0000
  O   O2246     1.0  0.80544  0.87210  0.88623  1.0000
  O   O2247     1.0  0.86123  0.86123  0.85265  1.0000
  O   O2248     1.0  0.00000  0.93877  0.85265  1.0000
  O   O2249     1.0  0.86667  0.99456  0.88623  1.0000
  O   O2250     1.0  0.92790  0.93333  0.88623  1.0000
